
---------- Begin Simulation Statistics ----------
final_tick                               346904632152000                       # Number of ticks from beginning of simulation (restored from checkpoints and never reset)
host_inst_rate                               18232478                       # Simulator instruction rate (inst/s)
host_mem_usage                                 963540                       # Number of bytes of host memory used
host_op_rate                                 33680506                       # Simulator op (including micro ops) rate (op/s)
host_seconds                                     0.43                       # Real time elapsed on the host
host_tick_rate                            18029117209                       # Simulator tick rate (ticks/s)
sim_freq                                 1000000000000                       # Frequency of simulated ticks
sim_insts                                     7788196                       # Number of instructions simulated
sim_ops                                      14389816                       # Number of ops (including micro ops) simulated
sim_seconds                                  0.007703                       # Number of seconds simulated
sim_ticks                                  7703125000                       # Number of ticks simulated
system.apicbridge.pwrStateResidencyTicks::UNDEFINED 346904632152000                       # Cumulative time (in ticks) in various power states
system.bridge.pwrStateResidencyTicks::UNDEFINED 346904632152000                       # Cumulative time (in ticks) in various power states
system.clk_domain.clock                          1000                       # Clock period in ticks
system.cpu.apic_clk_domain.clock                 8000                       # Clock period in ticks
system.cpu.committedInsts                           0                       # Number of instructions committed
system.cpu.committedOps                             0                       # Number of ops (including micro ops) committed
system.cpu.dtb.pwrStateResidencyTicks::UNDEFINED 346904632152000                       # Cumulative time (in ticks) in various power states
system.cpu.dtb.rdAccesses                           0                       # TLB accesses on read requests
system.cpu.dtb.rdMisses                             0                       # TLB misses on read requests
system.cpu.dtb.walker.pwrStateResidencyTicks::UNDEFINED 346904632152000                       # Cumulative time (in ticks) in various power states
system.cpu.dtb.wrAccesses                           0                       # TLB accesses on write requests
system.cpu.dtb.wrMisses                             0                       # TLB misses on write requests
system.cpu.idle_fraction                            0                       # Percentage of idle cycles
system.cpu.interrupts.pwrStateResidencyTicks::UNDEFINED 346904632152000                       # Cumulative time (in ticks) in various power states
system.cpu.itb.pwrStateResidencyTicks::UNDEFINED 346904632152000                       # Cumulative time (in ticks) in various power states
system.cpu.itb.rdAccesses                           0                       # TLB accesses on read requests
system.cpu.itb.rdMisses                             0                       # TLB misses on read requests
system.cpu.itb.walker.pwrStateResidencyTicks::UNDEFINED 346904632152000                       # Cumulative time (in ticks) in various power states
system.cpu.itb.wrAccesses                           0                       # TLB accesses on write requests
system.cpu.itb.wrMisses                             0                       # TLB misses on write requests
system.cpu.kern.inst.arm                            0                       # number of arm instructions executed
system.cpu.kern.inst.quiesce                        0                       # number of quiesce instructions executed
system.cpu.not_idle_fraction                        1                       # Percentage of non-idle cycles
system.cpu.numCycles                                0                       # number of cpu cycles simulated
system.cpu.numWorkItemsCompleted                    0                       # number of work items this cpu completed
system.cpu.numWorkItemsStarted                      0                       # number of work items this cpu started
system.cpu.num_busy_cycles                          0                       # Number of busy cycles
system.cpu.num_conditional_control_insts            0                       # number of instructions that are conditional controls
system.cpu.num_fp_alu_accesses                      0                       # Number of float alu accesses
system.cpu.num_fp_insts                             0                       # number of float instructions
system.cpu.num_fp_register_reads                    0                       # number of times the floating registers were read
system.cpu.num_fp_register_writes                   0                       # number of times the floating registers were written
system.cpu.num_func_calls                           0                       # number of times a function call or return occured
system.cpu.num_idle_cycles                          0                       # Number of idle cycles
system.cpu.num_int_alu_accesses                     0                       # Number of integer alu accesses
system.cpu.num_int_insts                            0                       # number of integer instructions
system.cpu.num_int_register_reads                   0                       # number of times the integer registers were read
system.cpu.num_int_register_writes                  0                       # number of times the integer registers were written
system.cpu.num_load_insts                           0                       # Number of load instructions
system.cpu.num_mem_refs                             0                       # number of memory refs
system.cpu.num_store_insts                          0                       # Number of store instructions
system.cpu.num_vec_alu_accesses                     0                       # Number of vector alu accesses
system.cpu.num_vec_insts                            0                       # number of vector instructions
system.cpu.num_vec_register_reads                   0                       # number of times the vector registers were read
system.cpu.num_vec_register_writes                  0                       # number of times the vector registers were written
system.cpu.op_class::No_OpClass                     0                       # Class of executed instruction
system.cpu.op_class::IntAlu                         0                       # Class of executed instruction
system.cpu.op_class::IntMult                        0                       # Class of executed instruction
system.cpu.op_class::IntDiv                         0                       # Class of executed instruction
system.cpu.op_class::FloatAdd                       0                       # Class of executed instruction
system.cpu.op_class::FloatCmp                       0                       # Class of executed instruction
system.cpu.op_class::FloatCvt                       0                       # Class of executed instruction
system.cpu.op_class::FloatMult                      0                       # Class of executed instruction
system.cpu.op_class::FloatMultAcc                   0                       # Class of executed instruction
system.cpu.op_class::FloatDiv                       0                       # Class of executed instruction
system.cpu.op_class::FloatMisc                      0                       # Class of executed instruction
system.cpu.op_class::FloatSqrt                      0                       # Class of executed instruction
system.cpu.op_class::SimdAdd                        0                       # Class of executed instruction
system.cpu.op_class::SimdAddAcc                     0                       # Class of executed instruction
system.cpu.op_class::SimdAlu                        0                       # Class of executed instruction
system.cpu.op_class::SimdCmp                        0                       # Class of executed instruction
system.cpu.op_class::SimdCvt                        0                       # Class of executed instruction
system.cpu.op_class::SimdMisc                       0                       # Class of executed instruction
system.cpu.op_class::SimdMult                       0                       # Class of executed instruction
system.cpu.op_class::SimdMultAcc                    0                       # Class of executed instruction
system.cpu.op_class::SimdShift                      0                       # Class of executed instruction
system.cpu.op_class::SimdShiftAcc                   0                       # Class of executed instruction
system.cpu.op_class::SimdSqrt                       0                       # Class of executed instruction
system.cpu.op_class::SimdFloatAdd                   0                       # Class of executed instruction
system.cpu.op_class::SimdFloatAlu                   0                       # Class of executed instruction
system.cpu.op_class::SimdFloatCmp                   0                       # Class of executed instruction
system.cpu.op_class::SimdFloatCvt                   0                       # Class of executed instruction
system.cpu.op_class::SimdFloatDiv                   0                       # Class of executed instruction
system.cpu.op_class::SimdFloatMisc                  0                       # Class of executed instruction
system.cpu.op_class::SimdFloatMult                  0                       # Class of executed instruction
system.cpu.op_class::SimdFloatMultAcc               0                       # Class of executed instruction
system.cpu.op_class::SimdFloatSqrt                  0                       # Class of executed instruction
system.cpu.op_class::SimdAes                        0                       # Class of executed instruction
system.cpu.op_class::SimdAesMix                     0                       # Class of executed instruction
system.cpu.op_class::SimdSha1Hash                   0                       # Class of executed instruction
system.cpu.op_class::SimdSha1Hash2                  0                       # Class of executed instruction
system.cpu.op_class::SimdSha256Hash                 0                       # Class of executed instruction
system.cpu.op_class::SimdSha256Hash2                0                       # Class of executed instruction
system.cpu.op_class::SimdShaSigma2                  0                       # Class of executed instruction
system.cpu.op_class::SimdShaSigma3                  0                       # Class of executed instruction
system.cpu.op_class::MemRead                        0                       # Class of executed instruction
system.cpu.op_class::MemWrite                       0                       # Class of executed instruction
system.cpu.op_class::FloatMemRead                   0                       # Class of executed instruction
system.cpu.op_class::FloatMemWrite                  0                       # Class of executed instruction
system.cpu.op_class::IprAccess                      0                       # Class of executed instruction
system.cpu.op_class::InstPrefetch                   0                       # Class of executed instruction
system.cpu.op_class::total                          0                       # Class of executed instruction
system.cpu.pwrStateResidencyTicks::OFF   1773492236500                       # Cumulative time (in ticks) in various power states
system.cpu_clk_domain.clock                       500                       # Clock period in ticks
system.cpu_voltage_domain.voltage                   1                       # Voltage in Volts
system.iobridge.pwrStateResidencyTicks::UNDEFINED 346904632152000                       # Cumulative time (in ticks) in various power states
system.iobus.pkt_count_system.bridge.master::system.pc.com_1.pio          232                       # Packet count per connected master and slave (bytes)
system.iobus.pkt_count_system.bridge.master::total          232                       # Packet count per connected master and slave (bytes)
system.iobus.pkt_count_system.pc.south_bridge.io_apic.int_master::system.apicbridge.slave           58                       # Packet count per connected master and slave (bytes)
system.iobus.pkt_count_system.pc.south_bridge.io_apic.int_master::total           58                       # Packet count per connected master and slave (bytes)
system.iobus.pkt_count::total                     290                       # Packet count per connected master and slave (bytes)
system.iobus.pkt_size_system.bridge.master::system.pc.com_1.pio          116                       # Cumulative packet size per connected master and slave (bytes)
system.iobus.pkt_size_system.bridge.master::total          116                       # Cumulative packet size per connected master and slave (bytes)
system.iobus.pkt_size_system.pc.south_bridge.io_apic.int_master::system.apicbridge.slave          116                       # Cumulative packet size per connected master and slave (bytes)
system.iobus.pkt_size_system.pc.south_bridge.io_apic.int_master::total          116                       # Cumulative packet size per connected master and slave (bytes)
system.iobus.pkt_size::total                      232                       # Cumulative packet size per connected master and slave (bytes)
system.iobus.pwrStateResidencyTicks::UNDEFINED 346904632152000                       # Cumulative time (in ticks) in various power states
system.iobus.reqLayer0.occupancy                58000                       # Layer occupancy (ticks)
system.iobus.reqLayer0.utilization                0.0                       # Layer utilization (%)
system.iobus.reqLayer13.occupancy              149000                       # Layer occupancy (ticks)
system.iobus.reqLayer13.utilization               0.0                       # Layer utilization (%)
system.iobus.respLayer0.occupancy              199000                       # Layer occupancy (ticks)
system.iobus.respLayer0.utilization               0.0                       # Layer utilization (%)
system.iobus.respLayer3.occupancy               29000                       # Layer occupancy (ticks)
system.iobus.respLayer3.utilization               0.0                       # Layer utilization (%)
system.iobus.trans_dist::ReadReq                   83                       # Transaction distribution
system.iobus.trans_dist::ReadResp                  83                       # Transaction distribution
system.iobus.trans_dist::WriteReq                  33                       # Transaction distribution
system.iobus.trans_dist::WriteResp                 33                       # Transaction distribution
system.iobus.trans_dist::MessageReq                29                       # Transaction distribution
system.iobus.trans_dist::MessageResp               29                       # Transaction distribution
system.mem_ctrls.avgBusLat                    5000.00                       # Average bus latency per DRAM burst
system.mem_ctrls.avgGap                      55462.96                       # Average gap between requests
system.mem_ctrls.avgMemAccLat                29455.69                       # Average memory access latency per DRAM burst
system.mem_ctrls.avgPriority_.switch_cpus.dtb.walker::samples        86.00                       # Average QoS priority value for accepted requests
system.mem_ctrls.avgPriority_.switch_cpus.itb.walker::samples       140.00                       # Average QoS priority value for accepted requests
system.mem_ctrls.avgPriority_.switch_cpus.inst::samples    103508.00                       # Average QoS priority value for accepted requests
system.mem_ctrls.avgPriority_.switch_cpus.data::samples     18983.00                       # Average QoS priority value for accepted requests
system.mem_ctrls.avgQLat                     10705.69                       # Average queueing delay per DRAM burst
system.mem_ctrls.avgRdBW                      1011.82                       # Average DRAM read bandwidth in MiByte/s
system.mem_ctrls.avgRdBWSys                    126.28                       # Average system read bandwidth in MiByte/s
system.mem_ctrls.avgRdQLen                       1.00                       # Average read queue length when enqueuing
system.mem_ctrls.avgWrBW                         7.76                       # Average achieved write bandwidth in MiByte/s
system.mem_ctrls.avgWrBWSys                     12.13                       # Average system write bandwidth in MiByte/s
system.mem_ctrls.avgWrQLen                      26.94                       # Average write queue length when enqueuing
system.mem_ctrls.busUtil                         7.97                       # Data bus utilization in percentage
system.mem_ctrls.busUtilRead                     7.90                       # Data bus utilization in percentage for reads
system.mem_ctrls.busUtilWrite                    0.06                       # Data bus utilization in percentage for writes
system.mem_ctrls.bw_inst_read::.switch_cpus.inst    107497152                       # Instruction read bandwidth from this memory (bytes/s)
system.mem_ctrls.bw_inst_read::total        107497152                       # Instruction read bandwidth from this memory (bytes/s)
system.mem_ctrls.bw_read::.switch_cpus.dtb.walker        94507                       # Total read bandwidth from this memory (bytes/s)
system.mem_ctrls.bw_read::.switch_cpus.itb.walker       157858                       # Total read bandwidth from this memory (bytes/s)
system.mem_ctrls.bw_read::.switch_cpus.inst    107497152                       # Total read bandwidth from this memory (bytes/s)
system.mem_ctrls.bw_read::.switch_cpus.data     18535205                       # Total read bandwidth from this memory (bytes/s)
system.mem_ctrls.bw_read::total             126284722                       # Total read bandwidth from this memory (bytes/s)
system.mem_ctrls.bw_total::.switch_cpus.dtb.walker        94507                       # Total bandwidth to/from this memory (bytes/s)
system.mem_ctrls.bw_total::.switch_cpus.itb.walker       157858                       # Total bandwidth to/from this memory (bytes/s)
system.mem_ctrls.bw_total::.switch_cpus.inst    107497152                       # Total bandwidth to/from this memory (bytes/s)
system.mem_ctrls.bw_total::.switch_cpus.data     30661582                       # Total bandwidth to/from this memory (bytes/s)
system.mem_ctrls.bw_total::total            138411099                       # Total bandwidth to/from this memory (bytes/s)
system.mem_ctrls.bw_write::.switch_cpus.data     12126377                       # Write bandwidth from this memory (bytes/s)
system.mem_ctrls.bw_write::total             12126377                       # Write bandwidth from this memory (bytes/s)
system.mem_ctrls.bytesPerActivate::samples        15160                       # Bytes accessed per row activation
system.mem_ctrls.bytesPerActivate::mean    518.142480                       # Bytes accessed per row activation
system.mem_ctrls.bytesPerActivate::gmean   321.005810                       # Bytes accessed per row activation
system.mem_ctrls.bytesPerActivate::stdev   401.333563                       # Bytes accessed per row activation
system.mem_ctrls.bytesPerActivate::0-127         3449     22.75%     22.75% # Bytes accessed per row activation
system.mem_ctrls.bytesPerActivate::128-255         2317     15.28%     38.03% # Bytes accessed per row activation
system.mem_ctrls.bytesPerActivate::256-383         1262      8.32%     46.36% # Bytes accessed per row activation
system.mem_ctrls.bytesPerActivate::384-511          971      6.41%     52.76% # Bytes accessed per row activation
system.mem_ctrls.bytesPerActivate::512-639          763      5.03%     57.80% # Bytes accessed per row activation
system.mem_ctrls.bytesPerActivate::640-767          710      4.68%     62.48% # Bytes accessed per row activation
system.mem_ctrls.bytesPerActivate::768-895          551      3.63%     66.11% # Bytes accessed per row activation
system.mem_ctrls.bytesPerActivate::896-1023          550      3.63%     69.74% # Bytes accessed per row activation
system.mem_ctrls.bytesPerActivate::1024-1151         4587     30.26%    100.00% # Bytes accessed per row activation
system.mem_ctrls.bytesPerActivate::total        15160                       # Bytes accessed per row activation
system.mem_ctrls.bytesReadDRAM                7794176                       # Total number of bytes read from DRAM
system.mem_ctrls.bytesReadSys                  972787                       # Total read bytes from the system interface side
system.mem_ctrls.bytesReadWrQ                  238656                       # Total number of bytes read from write queue
system.mem_ctrls.bytesWritten                   59776                       # Total number of bytes written to DRAM
system.mem_ctrls.bytesWrittenSys                93411                       # Total written bytes from the system interface side
system.mem_ctrls.bytes_inst_read::.switch_cpus.inst       828064                       # Number of instructions bytes read from this memory
system.mem_ctrls.bytes_inst_read::total        828064                       # Number of instructions bytes read from this memory
system.mem_ctrls.bytes_read::.switch_cpus.dtb.walker          728                       # Number of bytes read from this memory
system.mem_ctrls.bytes_read::.switch_cpus.itb.walker         1216                       # Number of bytes read from this memory
system.mem_ctrls.bytes_read::.switch_cpus.inst       828064                       # Number of bytes read from this memory
system.mem_ctrls.bytes_read::.switch_cpus.data       142779                       # Number of bytes read from this memory
system.mem_ctrls.bytes_read::total             972787                       # Number of bytes read from this memory
system.mem_ctrls.bytes_written::.switch_cpus.data        93411                       # Number of bytes written to this memory
system.mem_ctrls.bytes_written::total           93411                       # Number of bytes written to this memory
system.mem_ctrls.masterReadAccesses::.switch_cpus.dtb.walker           91                       # Per-master read serviced memory accesses
system.mem_ctrls.masterReadAccesses::.switch_cpus.itb.walker          152                       # Per-master read serviced memory accesses
system.mem_ctrls.masterReadAccesses::.switch_cpus.inst       103508                       # Per-master read serviced memory accesses
system.mem_ctrls.masterReadAccesses::.switch_cpus.data        21762                       # Per-master read serviced memory accesses
system.mem_ctrls.masterReadAvgLat::.switch_cpus.dtb.walker     45815.93                       # Per-master read average memory access latency
system.mem_ctrls.masterReadAvgLat::.switch_cpus.itb.walker     50712.17                       # Per-master read average memory access latency
system.mem_ctrls.masterReadAvgLat::.switch_cpus.inst     28657.00                       # Per-master read average memory access latency
system.mem_ctrls.masterReadAvgLat::.switch_cpus.data     27990.34                       # Per-master read average memory access latency
system.mem_ctrls.masterReadBytes::.switch_cpus.dtb.walker          688                       # Per-master bytes read from memory
system.mem_ctrls.masterReadBytes::.switch_cpus.itb.walker         1120                       # Per-master bytes read from memory
system.mem_ctrls.masterReadBytes::.switch_cpus.inst       828064                       # Per-master bytes read from memory
system.mem_ctrls.masterReadBytes::.switch_cpus.data       118664                       # Per-master bytes read from memory
system.mem_ctrls.masterReadRate::.switch_cpus.dtb.walker 89314.401622718055                       # Per-master bytes read from memory rate (Bytes/sec)
system.mem_ctrls.masterReadRate::.switch_cpus.itb.walker 145395.537525354972                       # Per-master bytes read from memory rate (Bytes/sec)
system.mem_ctrls.masterReadRate::.switch_cpus.inst 107497152.129817441106                       # Per-master bytes read from memory rate (Bytes/sec)
system.mem_ctrls.masterReadRate::.switch_cpus.data 15404657.200811360031                       # Per-master bytes read from memory rate (Bytes/sec)
system.mem_ctrls.masterReadTotalLat::.switch_cpus.dtb.walker      4169250                       # Per-master read total memory access latency
system.mem_ctrls.masterReadTotalLat::.switch_cpus.itb.walker      7708250                       # Per-master read total memory access latency
system.mem_ctrls.masterReadTotalLat::.switch_cpus.inst   2966228250                       # Per-master read total memory access latency
system.mem_ctrls.masterReadTotalLat::.switch_cpus.data    609125750                       # Per-master read total memory access latency
system.mem_ctrls.masterWriteAccesses::.switch_cpus.data        13375                       # Per-master write serviced memory accesses
system.mem_ctrls.masterWriteAvgLat::.switch_cpus.data  15937915.57                       # Per-master write average memory access latency
system.mem_ctrls.masterWriteBytes::.switch_cpus.data         6062                       # Per-master bytes write to memory
system.mem_ctrls.masterWriteRate::.switch_cpus.data 786953.346855983837                       # Per-master bytes write to memory rate (Bytes/sec)
system.mem_ctrls.masterWriteTotalLat::.switch_cpus.data 213169620750                       # Per-master write total memory access latency
system.mem_ctrls.mergedWrBursts                 12442                       # Number of DRAM write bursts merged with an existing one
system.mem_ctrls.neitherReadNorWriteReqs            0                       # Number of requests that are neither read nor write
system.mem_ctrls.numRdRetry                         0                       # Number of times read queue was full causing retry
system.mem_ctrls.numReadWriteTurnArounds           58                       # Number of turnarounds from READ to WRITE
system.mem_ctrls.numStayReadState              258801                       # Number of times bus staying in READ state
system.mem_ctrls.numStayWriteState                883                       # Number of times bus staying in WRITE state
system.mem_ctrls.numWrRetry                         0                       # Number of times write queue was full causing retry
system.mem_ctrls.numWriteReadTurnArounds           58                       # Number of turnarounds from WRITE to READ
system.mem_ctrls.num_reads::.switch_cpus.dtb.walker           91                       # Number of read requests responded to by this memory
system.mem_ctrls.num_reads::.switch_cpus.itb.walker          152                       # Number of read requests responded to by this memory
system.mem_ctrls.num_reads::.switch_cpus.inst       103508                       # Number of read requests responded to by this memory
system.mem_ctrls.num_reads::.switch_cpus.data        21762                       # Number of read requests responded to by this memory
system.mem_ctrls.num_reads::total              125513                       # Number of read requests responded to by this memory
system.mem_ctrls.num_writes::.switch_cpus.data        13375                       # Number of write requests responded to by this memory
system.mem_ctrls.num_writes::total              13375                       # Number of write requests responded to by this memory
system.mem_ctrls.pageHitRate                    87.65                       # Row buffer hit rate, read and write combined
system.mem_ctrls.peakBW                      12800.00                       # Theoretical peak bandwidth in MiByte/s
system.mem_ctrls.perBankRdBursts::0             11341                       # Per bank write bursts
system.mem_ctrls.perBankRdBursts::1              7235                       # Per bank write bursts
system.mem_ctrls.perBankRdBursts::2             16391                       # Per bank write bursts
system.mem_ctrls.perBankRdBursts::3              6367                       # Per bank write bursts
system.mem_ctrls.perBankRdBursts::4              4525                       # Per bank write bursts
system.mem_ctrls.perBankRdBursts::5              3519                       # Per bank write bursts
system.mem_ctrls.perBankRdBursts::6             11639                       # Per bank write bursts
system.mem_ctrls.perBankRdBursts::7              4387                       # Per bank write bursts
system.mem_ctrls.perBankRdBursts::8              6802                       # Per bank write bursts
system.mem_ctrls.perBankRdBursts::9              6643                       # Per bank write bursts
system.mem_ctrls.perBankRdBursts::10             3349                       # Per bank write bursts
system.mem_ctrls.perBankRdBursts::11             1642                       # Per bank write bursts
system.mem_ctrls.perBankRdBursts::12             1572                       # Per bank write bursts
system.mem_ctrls.perBankRdBursts::13            23669                       # Per bank write bursts
system.mem_ctrls.perBankRdBursts::14             6739                       # Per bank write bursts
system.mem_ctrls.perBankRdBursts::15             5964                       # Per bank write bursts
system.mem_ctrls.perBankWrBursts::0                 3                       # Per bank write bursts
system.mem_ctrls.perBankWrBursts::1               115                       # Per bank write bursts
system.mem_ctrls.perBankWrBursts::2                24                       # Per bank write bursts
system.mem_ctrls.perBankWrBursts::3               254                       # Per bank write bursts
system.mem_ctrls.perBankWrBursts::4                 1                       # Per bank write bursts
system.mem_ctrls.perBankWrBursts::5                27                       # Per bank write bursts
system.mem_ctrls.perBankWrBursts::6                62                       # Per bank write bursts
system.mem_ctrls.perBankWrBursts::7                29                       # Per bank write bursts
system.mem_ctrls.perBankWrBursts::8               140                       # Per bank write bursts
system.mem_ctrls.perBankWrBursts::9                23                       # Per bank write bursts
system.mem_ctrls.perBankWrBursts::10               57                       # Per bank write bursts
system.mem_ctrls.perBankWrBursts::11               85                       # Per bank write bursts
system.mem_ctrls.perBankWrBursts::12               30                       # Per bank write bursts
system.mem_ctrls.perBankWrBursts::13               67                       # Per bank write bursts
system.mem_ctrls.perBankWrBursts::14                7                       # Per bank write bursts
system.mem_ctrls.perBankWrBursts::15               10                       # Per bank write bursts
system.mem_ctrls.priorityMaxLatency      0.006710623250                       # per QoS priority maximum request to response latency (s)
system.mem_ctrls.priorityMinLatency      0.000000018750                       # per QoS priority minimum request to response latency (s)
system.mem_ctrls.pwrStateResidencyTicks::UNDEFINED 346904632152000                       # Cumulative time (in ticks) in various power states
system.mem_ctrls.rdPerTurnAround::samples           58                       # Reads before turning the bus around for writes
system.mem_ctrls.rdPerTurnAround::mean    2100.758621                       # Reads before turning the bus around for writes
system.mem_ctrls.rdPerTurnAround::gmean   1064.623977                       # Reads before turning the bus around for writes
system.mem_ctrls.rdPerTurnAround::stdev   5769.343270                       # Reads before turning the bus around for writes
system.mem_ctrls.rdPerTurnAround::0-2047           49     84.48%     84.48% # Reads before turning the bus around for writes
system.mem_ctrls.rdPerTurnAround::2048-4095            5      8.62%     93.10% # Reads before turning the bus around for writes
system.mem_ctrls.rdPerTurnAround::4096-6143            1      1.72%     94.83% # Reads before turning the bus around for writes
system.mem_ctrls.rdPerTurnAround::6144-8191            2      3.45%     98.28% # Reads before turning the bus around for writes
system.mem_ctrls.rdPerTurnAround::43008-45055            1      1.72%    100.00% # Reads before turning the bus around for writes
system.mem_ctrls.rdPerTurnAround::total            58                       # Reads before turning the bus around for writes
system.mem_ctrls.rdQLenPdf::0                  121782                       # What read queue length does an incoming req see
system.mem_ctrls.rdQLenPdf::1                       2                       # What read queue length does an incoming req see
system.mem_ctrls.rdQLenPdf::2                       0                       # What read queue length does an incoming req see
system.mem_ctrls.rdQLenPdf::3                       0                       # What read queue length does an incoming req see
system.mem_ctrls.rdQLenPdf::4                       0                       # What read queue length does an incoming req see
system.mem_ctrls.rdQLenPdf::5                       0                       # What read queue length does an incoming req see
system.mem_ctrls.rdQLenPdf::6                       0                       # What read queue length does an incoming req see
system.mem_ctrls.rdQLenPdf::7                       0                       # What read queue length does an incoming req see
system.mem_ctrls.rdQLenPdf::8                       0                       # What read queue length does an incoming req see
system.mem_ctrls.rdQLenPdf::9                       0                       # What read queue length does an incoming req see
system.mem_ctrls.rdQLenPdf::10                      0                       # What read queue length does an incoming req see
system.mem_ctrls.rdQLenPdf::11                      0                       # What read queue length does an incoming req see
system.mem_ctrls.rdQLenPdf::12                      0                       # What read queue length does an incoming req see
system.mem_ctrls.rdQLenPdf::13                      0                       # What read queue length does an incoming req see
system.mem_ctrls.rdQLenPdf::14                      0                       # What read queue length does an incoming req see
system.mem_ctrls.rdQLenPdf::15                      0                       # What read queue length does an incoming req see
system.mem_ctrls.rdQLenPdf::16                      0                       # What read queue length does an incoming req see
system.mem_ctrls.rdQLenPdf::17                      0                       # What read queue length does an incoming req see
system.mem_ctrls.rdQLenPdf::18                      0                       # What read queue length does an incoming req see
system.mem_ctrls.rdQLenPdf::19                      0                       # What read queue length does an incoming req see
system.mem_ctrls.rdQLenPdf::20                      0                       # What read queue length does an incoming req see
system.mem_ctrls.rdQLenPdf::21                      0                       # What read queue length does an incoming req see
system.mem_ctrls.rdQLenPdf::22                      0                       # What read queue length does an incoming req see
system.mem_ctrls.rdQLenPdf::23                      0                       # What read queue length does an incoming req see
system.mem_ctrls.rdQLenPdf::24                      0                       # What read queue length does an incoming req see
system.mem_ctrls.rdQLenPdf::25                      0                       # What read queue length does an incoming req see
system.mem_ctrls.rdQLenPdf::26                      0                       # What read queue length does an incoming req see
system.mem_ctrls.rdQLenPdf::27                      0                       # What read queue length does an incoming req see
system.mem_ctrls.rdQLenPdf::28                      0                       # What read queue length does an incoming req see
system.mem_ctrls.rdQLenPdf::29                      0                       # What read queue length does an incoming req see
system.mem_ctrls.rdQLenPdf::30                      0                       # What read queue length does an incoming req see
system.mem_ctrls.rdQLenPdf::31                      0                       # What read queue length does an incoming req see
system.mem_ctrls.readBursts                    125513                       # Number of DRAM read bursts, including those serviced by the write queue
system.mem_ctrls.readPktSize::0                  1029                       # Read request sizes (log2)
system.mem_ctrls.readPktSize::1                   194                       # Read request sizes (log2)
system.mem_ctrls.readPktSize::2                  5737                       # Read request sizes (log2)
system.mem_ctrls.readPktSize::3                118553                       # Read request sizes (log2)
system.mem_ctrls.readPktSize::4                     0                       # Read request sizes (log2)
system.mem_ctrls.readPktSize::5                     0                       # Read request sizes (log2)
system.mem_ctrls.readPktSize::6                     0                       # Read request sizes (log2)
system.mem_ctrls.readReqs                      125513                       # Number of read requests accepted
system.mem_ctrls.readRowHitRate                 87.74                       # Row buffer hit rate for reads
system.mem_ctrls.readRowHits                   106853                       # Number of row buffer hits during reads
system.mem_ctrls.servicedByWrQ                   3729                       # Number of DRAM read bursts serviced by the write queue
system.mem_ctrls.totBusLat                  608920000                       # Total ticks spent in databus transfers
system.mem_ctrls.totGap                    7703139000                       # Total gap between requests
system.mem_ctrls.totMemAccLat              3587231500                       # Total ticks spent from burst creation until serviced by the DRAM
system.mem_ctrls.totQLat                   1303781500                       # Total ticks spent queuing
system.mem_ctrls.wrPerTurnAround::samples           58                       # Writes before turning the bus around for reads
system.mem_ctrls.wrPerTurnAround::mean      16.103448                       # Writes before turning the bus around for reads
system.mem_ctrls.wrPerTurnAround::gmean     16.095095                       # Writes before turning the bus around for reads
system.mem_ctrls.wrPerTurnAround::stdev      0.552178                       # Writes before turning the bus around for reads
system.mem_ctrls.wrPerTurnAround::16               56     96.55%     96.55% # Writes before turning the bus around for reads
system.mem_ctrls.wrPerTurnAround::19                2      3.45%    100.00% # Writes before turning the bus around for reads
system.mem_ctrls.wrPerTurnAround::total            58                       # Writes before turning the bus around for reads
system.mem_ctrls.wrQLenPdf::0                       0                       # What write queue length does an incoming req see
system.mem_ctrls.wrQLenPdf::1                       0                       # What write queue length does an incoming req see
system.mem_ctrls.wrQLenPdf::2                       0                       # What write queue length does an incoming req see
system.mem_ctrls.wrQLenPdf::3                       0                       # What write queue length does an incoming req see
system.mem_ctrls.wrQLenPdf::4                       0                       # What write queue length does an incoming req see
system.mem_ctrls.wrQLenPdf::5                       0                       # What write queue length does an incoming req see
system.mem_ctrls.wrQLenPdf::6                       0                       # What write queue length does an incoming req see
system.mem_ctrls.wrQLenPdf::7                       0                       # What write queue length does an incoming req see
system.mem_ctrls.wrQLenPdf::8                       0                       # What write queue length does an incoming req see
system.mem_ctrls.wrQLenPdf::9                       0                       # What write queue length does an incoming req see
system.mem_ctrls.wrQLenPdf::10                      0                       # What write queue length does an incoming req see
system.mem_ctrls.wrQLenPdf::11                      0                       # What write queue length does an incoming req see
system.mem_ctrls.wrQLenPdf::12                      0                       # What write queue length does an incoming req see
system.mem_ctrls.wrQLenPdf::13                      0                       # What write queue length does an incoming req see
system.mem_ctrls.wrQLenPdf::14                      0                       # What write queue length does an incoming req see
system.mem_ctrls.wrQLenPdf::15                      2                       # What write queue length does an incoming req see
system.mem_ctrls.wrQLenPdf::16                      2                       # What write queue length does an incoming req see
system.mem_ctrls.wrQLenPdf::17                     58                       # What write queue length does an incoming req see
system.mem_ctrls.wrQLenPdf::18                     57                       # What write queue length does an incoming req see
system.mem_ctrls.wrQLenPdf::19                     58                       # What write queue length does an incoming req see
system.mem_ctrls.wrQLenPdf::20                     58                       # What write queue length does an incoming req see
system.mem_ctrls.wrQLenPdf::21                     58                       # What write queue length does an incoming req see
system.mem_ctrls.wrQLenPdf::22                     58                       # What write queue length does an incoming req see
system.mem_ctrls.wrQLenPdf::23                     58                       # What write queue length does an incoming req see
system.mem_ctrls.wrQLenPdf::24                     58                       # What write queue length does an incoming req see
system.mem_ctrls.wrQLenPdf::25                     60                       # What write queue length does an incoming req see
system.mem_ctrls.wrQLenPdf::26                     58                       # What write queue length does an incoming req see
system.mem_ctrls.wrQLenPdf::27                     58                       # What write queue length does an incoming req see
system.mem_ctrls.wrQLenPdf::28                     58                       # What write queue length does an incoming req see
system.mem_ctrls.wrQLenPdf::29                     58                       # What write queue length does an incoming req see
system.mem_ctrls.wrQLenPdf::30                     58                       # What write queue length does an incoming req see
system.mem_ctrls.wrQLenPdf::31                     58                       # What write queue length does an incoming req see
system.mem_ctrls.wrQLenPdf::32                     58                       # What write queue length does an incoming req see
system.mem_ctrls.wrQLenPdf::33                      0                       # What write queue length does an incoming req see
system.mem_ctrls.wrQLenPdf::34                      0                       # What write queue length does an incoming req see
system.mem_ctrls.wrQLenPdf::35                      0                       # What write queue length does an incoming req see
system.mem_ctrls.wrQLenPdf::36                      0                       # What write queue length does an incoming req see
system.mem_ctrls.wrQLenPdf::37                      0                       # What write queue length does an incoming req see
system.mem_ctrls.wrQLenPdf::38                      0                       # What write queue length does an incoming req see
system.mem_ctrls.wrQLenPdf::39                      0                       # What write queue length does an incoming req see
system.mem_ctrls.wrQLenPdf::40                      0                       # What write queue length does an incoming req see
system.mem_ctrls.wrQLenPdf::41                      0                       # What write queue length does an incoming req see
system.mem_ctrls.wrQLenPdf::42                      0                       # What write queue length does an incoming req see
system.mem_ctrls.wrQLenPdf::43                      0                       # What write queue length does an incoming req see
system.mem_ctrls.wrQLenPdf::44                      0                       # What write queue length does an incoming req see
system.mem_ctrls.wrQLenPdf::45                      0                       # What write queue length does an incoming req see
system.mem_ctrls.wrQLenPdf::46                      0                       # What write queue length does an incoming req see
system.mem_ctrls.wrQLenPdf::47                      0                       # What write queue length does an incoming req see
system.mem_ctrls.wrQLenPdf::48                      0                       # What write queue length does an incoming req see
system.mem_ctrls.wrQLenPdf::49                      0                       # What write queue length does an incoming req see
system.mem_ctrls.wrQLenPdf::50                      0                       # What write queue length does an incoming req see
system.mem_ctrls.wrQLenPdf::51                      0                       # What write queue length does an incoming req see
system.mem_ctrls.wrQLenPdf::52                      0                       # What write queue length does an incoming req see
system.mem_ctrls.wrQLenPdf::53                      0                       # What write queue length does an incoming req see
system.mem_ctrls.wrQLenPdf::54                      0                       # What write queue length does an incoming req see
system.mem_ctrls.wrQLenPdf::55                      0                       # What write queue length does an incoming req see
system.mem_ctrls.wrQLenPdf::56                      0                       # What write queue length does an incoming req see
system.mem_ctrls.wrQLenPdf::57                      0                       # What write queue length does an incoming req see
system.mem_ctrls.wrQLenPdf::58                      0                       # What write queue length does an incoming req see
system.mem_ctrls.wrQLenPdf::59                      0                       # What write queue length does an incoming req see
system.mem_ctrls.wrQLenPdf::60                      0                       # What write queue length does an incoming req see
system.mem_ctrls.wrQLenPdf::61                      0                       # What write queue length does an incoming req see
system.mem_ctrls.wrQLenPdf::62                      0                       # What write queue length does an incoming req see
system.mem_ctrls.wrQLenPdf::63                      0                       # What write queue length does an incoming req see
system.mem_ctrls.writeBursts                    13375                       # Number of DRAM write bursts, including those merged in the write queue
system.mem_ctrls.writePktSize::0                  339                       # Write request sizes (log2)
system.mem_ctrls.writePktSize::1                  188                       # Write request sizes (log2)
system.mem_ctrls.writePktSize::2                 2522                       # Write request sizes (log2)
system.mem_ctrls.writePktSize::3                10326                       # Write request sizes (log2)
system.mem_ctrls.writePktSize::4                    0                       # Write request sizes (log2)
system.mem_ctrls.writePktSize::5                    0                       # Write request sizes (log2)
system.mem_ctrls.writePktSize::6                    0                       # Write request sizes (log2)
system.mem_ctrls.writeReqs                      13375                       # Number of write requests accepted
system.mem_ctrls.writeRowHitRate                75.88                       # Row buffer hit rate for writes
system.mem_ctrls.writeRowHits                     708                       # Number of row buffer hits during writes
system.mem_ctrls_0.actBackEnergy            940558140                       # Energy for active background per rank (pJ)
system.mem_ctrls_0.actEnergy                 56555940                       # Energy for activate commands per rank (pJ)
system.mem_ctrls_0.actPowerDownEnergy      2029808760                       # Energy for active power-down per rank (pJ)
system.mem_ctrls_0.averagePower            594.805765                       # Core power per rank (mW)
system.mem_ctrls_0.memoryStateTime::IDLE     34776000                       # Time in different power states
system.mem_ctrls_0.memoryStateTime::REF     246220000                       # Time in different power states
system.mem_ctrls_0.memoryStateTime::SREF    301512500                       # Time in different power states
system.mem_ctrls_0.memoryStateTime::PRE_PDN    823529000                       # Time in different power states
system.mem_ctrls_0.memoryStateTime::ACT    1851354250                       # Time in different power states
system.mem_ctrls_0.memoryStateTime::ACT_PDN   4445832750                       # Time in different power states
system.mem_ctrls_0.preBackEnergy             27221280                       # Energy for precharge background per rank (pJ)
system.mem_ctrls_0.preEnergy                 30041220                       # Energy for precharge commands per rank (pJ)
system.mem_ctrls_0.prePowerDownEnergy       316236960                       # Energy for precharge power-down per rank (pJ)
system.mem_ctrls_0.readEnergy               467462940                       # Energy for read commands per rank (pJ)
system.mem_ctrls_0.refreshEnergy         582064080.000000                       # Energy for refresh commands per rank (pJ)
system.mem_ctrls_0.selfRefreshEnergy        128863080                       # Energy for self refresh per rank (pJ)
system.mem_ctrls_0.totalEnergy             4581863160                       # Total energy per rank (pJ)
system.mem_ctrls_0.totalIdleTime           5570844000                       # Total Idle time Per DRAM Rank
system.mem_ctrls_0.writeEnergy                2724840                       # Energy for write commands per rank (pJ)
system.mem_ctrls_1.actBackEnergy            861642780                       # Energy for active background per rank (pJ)
system.mem_ctrls_1.actEnergy                 51765000                       # Energy for activate commands per rank (pJ)
system.mem_ctrls_1.actPowerDownEnergy      2302153620                       # Energy for active power-down per rank (pJ)
system.mem_ctrls_1.averagePower            590.006801                       # Core power per rank (mW)
system.mem_ctrls_1.memoryStateTime::IDLE     10232500                       # Time in different power states
system.mem_ctrls_1.memoryStateTime::REF     255060000                       # Time in different power states
system.mem_ctrls_1.memoryStateTime::SREF     60514250                       # Time in different power states
system.mem_ctrls_1.memoryStateTime::PRE_PDN    660375000                       # Time in different power states
system.mem_ctrls_1.memoryStateTime::ACT    1668781000                       # Time in different power states
system.mem_ctrls_1.memoryStateTime::ACT_PDN   5048192750                       # Time in different power states
system.mem_ctrls_1.preBackEnergy             16856640                       # Energy for precharge background per rank (pJ)
system.mem_ctrls_1.preEnergy                 27513750                       # Energy for precharge commands per rank (pJ)
system.mem_ctrls_1.prePowerDownEnergy       253547040                       # Energy for precharge power-down per rank (pJ)
system.mem_ctrls_1.readEnergy               402567480                       # Energy for read commands per rank (pJ)
system.mem_ctrls_1.refreshEnergy         602961840.000000                       # Energy for refresh commands per rank (pJ)
system.mem_ctrls_1.selfRefreshEnergy         23477640                       # Energy for self refresh per rank (pJ)
system.mem_ctrls_1.totalEnergy             4544896140                       # Total energy per rank (pJ)
system.mem_ctrls_1.totalIdleTime           5768990000                       # Total Idle time Per DRAM Rank
system.mem_ctrls_1.writeEnergy                2187180                       # Energy for write commands per rank (pJ)
system.membus.badaddr_responder.pwrStateResidencyTicks::UNDEFINED 346904632152000                       # Cumulative time (in ticks) in various power states
system.membus.pkt_count_system.apicbridge.master::system.cpu.interrupts.int_slave           58                       # Packet count per connected master and slave (bytes)
system.membus.pkt_count_system.apicbridge.master::total           58                       # Packet count per connected master and slave (bytes)
system.membus.pkt_count_system.cpu.icache_port::system.mem_ctrls.port       207016                       # Packet count per connected master and slave (bytes)
system.membus.pkt_count_system.cpu.icache_port::total       207016                       # Packet count per connected master and slave (bytes)
system.membus.pkt_count_system.cpu.dcache_port::system.bridge.slave          232                       # Packet count per connected master and slave (bytes)
system.membus.pkt_count_system.cpu.dcache_port::system.mmiofu.cpu_side         2600                       # Packet count per connected master and slave (bytes)
system.membus.pkt_count_system.cpu.dcache_port::system.cpu.interrupts.pio           20                       # Packet count per connected master and slave (bytes)
system.membus.pkt_count_system.cpu.dcache_port::system.mem_ctrls.port        70274                       # Packet count per connected master and slave (bytes)
system.membus.pkt_count_system.cpu.dcache_port::total        73126                       # Packet count per connected master and slave (bytes)
system.membus.pkt_count_system.cpu.itb.walker.port::system.mem_ctrls.port          304                       # Packet count per connected master and slave (bytes)
system.membus.pkt_count_system.cpu.itb.walker.port::total          304                       # Packet count per connected master and slave (bytes)
system.membus.pkt_count_system.cpu.dtb.walker.port::system.mem_ctrls.port          182                       # Packet count per connected master and slave (bytes)
system.membus.pkt_count_system.cpu.dtb.walker.port::total          182                       # Packet count per connected master and slave (bytes)
system.membus.pkt_count::total                 280686                       # Packet count per connected master and slave (bytes)
system.membus.pkt_size_system.apicbridge.master::system.cpu.interrupts.int_slave          116                       # Cumulative packet size per connected master and slave (bytes)
system.membus.pkt_size_system.apicbridge.master::total          116                       # Cumulative packet size per connected master and slave (bytes)
system.membus.pkt_size_system.cpu.icache_port::system.mem_ctrls.port       828064                       # Cumulative packet size per connected master and slave (bytes)
system.membus.pkt_size_system.cpu.icache_port::total       828064                       # Cumulative packet size per connected master and slave (bytes)
system.membus.pkt_size_system.cpu.dcache_port::system.bridge.slave          116                       # Cumulative packet size per connected master and slave (bytes)
system.membus.pkt_size_system.cpu.dcache_port::system.mmiofu.cpu_side        10400                       # Cumulative packet size per connected master and slave (bytes)
system.membus.pkt_size_system.cpu.dcache_port::system.cpu.interrupts.pio           40                       # Cumulative packet size per connected master and slave (bytes)
system.membus.pkt_size_system.cpu.dcache_port::system.mem_ctrls.port       236190                       # Cumulative packet size per connected master and slave (bytes)
system.membus.pkt_size_system.cpu.dcache_port::total       246746                       # Cumulative packet size per connected master and slave (bytes)
system.membus.pkt_size_system.cpu.itb.walker.port::system.mem_ctrls.port         1216                       # Cumulative packet size per connected master and slave (bytes)
system.membus.pkt_size_system.cpu.itb.walker.port::total         1216                       # Cumulative packet size per connected master and slave (bytes)
system.membus.pkt_size_system.cpu.dtb.walker.port::system.mem_ctrls.port          728                       # Cumulative packet size per connected master and slave (bytes)
system.membus.pkt_size_system.cpu.dtb.walker.port::total          728                       # Cumulative packet size per connected master and slave (bytes)
system.membus.pkt_size::total                 1076870                       # Cumulative packet size per connected master and slave (bytes)
system.membus.pwrStateResidencyTicks::UNDEFINED 346904632152000                       # Cumulative time (in ticks) in various power states
system.membus.reqLayer0.occupancy              149000                       # Layer occupancy (ticks)
system.membus.reqLayer0.utilization               0.0                       # Layer utilization (%)
system.membus.reqLayer1.occupancy             2300000                       # Layer occupancy (ticks)
system.membus.reqLayer1.utilization               0.0                       # Layer utilization (%)
system.membus.reqLayer2.occupancy               20000                       # Layer occupancy (ticks)
system.membus.reqLayer2.utilization               0.0                       # Layer utilization (%)
system.membus.reqLayer3.occupancy               58000                       # Layer occupancy (ticks)
system.membus.reqLayer3.utilization               0.0                       # Layer utilization (%)
system.membus.reqLayer4.occupancy           152263500                       # Layer occupancy (ticks)
system.membus.reqLayer4.utilization               2.0                       # Layer utilization (%)
system.membus.respLayer0.occupancy              29000                       # Layer occupancy (ticks)
system.membus.respLayer0.utilization              0.0                       # Layer utilization (%)
system.membus.respLayer3.occupancy          235409750                       # Layer occupancy (ticks)
system.membus.respLayer3.utilization              3.1                       # Layer utilization (%)
system.membus.respLayer4.occupancy           66147250                       # Layer occupancy (ticks)
system.membus.respLayer4.utilization              0.9                       # Layer utilization (%)
system.membus.respLayer5.occupancy             373750                       # Layer occupancy (ticks)
system.membus.respLayer5.utilization              0.0                       # Layer utilization (%)
system.membus.respLayer6.occupancy             224750                       # Layer occupancy (ticks)
system.membus.respLayer6.utilization              0.0                       # Layer utilization (%)
system.membus.snoopTraffic                          0                       # Total snoop traffic (bytes)
system.membus.snoop_fanout::samples            140343                       # Request fanout histogram
system.membus.snoop_fanout::mean                    0                       # Request fanout histogram
system.membus.snoop_fanout::stdev                   0                       # Request fanout histogram
system.membus.snoop_fanout::underflows              0      0.00%      0.00% # Request fanout histogram
system.membus.snoop_fanout::0                  140343    100.00%    100.00% # Request fanout histogram
system.membus.snoop_fanout::1                       0      0.00%    100.00% # Request fanout histogram
system.membus.snoop_fanout::overflows               0      0.00%    100.00% # Request fanout histogram
system.membus.snoop_fanout::min_value               0                       # Request fanout histogram
system.membus.snoop_fanout::max_value               0                       # Request fanout histogram
system.membus.snoop_fanout::total              140343                       # Request fanout histogram
system.membus.snoop_filter.hit_multi_requests            0                       # Number of requests hitting in the snoop filter with multiple (>1) holders of the requested data.
system.membus.snoop_filter.hit_multi_snoops            0                       # Number of snoops hitting in the snoop filter with multiple (>1) holders of the requested data.
system.membus.snoop_filter.hit_single_requests            0                       # Number of requests hitting in the snoop filter with a single holder of the requested data.
system.membus.snoop_filter.hit_single_snoops            0                       # Number of snoops hitting in the snoop filter with a single holder of the requested data.
system.membus.snoop_filter.tot_requests             0                       # Total number of requests made to the snoop filter.
system.membus.snoop_filter.tot_snoops               0                       # Total number of snoops made to the snoop filter.
system.membus.snoops                                0                       # Total snoops (count)
system.membus.trans_dist::ReadReq              125872                       # Transaction distribution
system.membus.trans_dist::ReadResp             125872                       # Transaction distribution
system.membus.trans_dist::WriteReq              14418                       # Transaction distribution
system.membus.trans_dist::WriteResp             14418                       # Transaction distribution
system.membus.trans_dist::SoftPFReq                24                       # Transaction distribution
system.membus.trans_dist::SoftPFResp               24                       # Transaction distribution
system.membus.trans_dist::MessageReq               29                       # Transaction distribution
system.membus.trans_dist::MessageResp              29                       # Transaction distribution
system.mmiofu.pwrStateResidencyTicks::UNDEFINED 346904632152000                       # Cumulative time (in ticks) in various power states
system.mmiofu_bridge.pwrStateResidencyTicks::UNDEFINED 346904632152000                       # Cumulative time (in ticks) in various power states
system.pc.behind_pci.pwrStateResidencyTicks::UNDEFINED 346904632152000                       # Cumulative time (in ticks) in various power states
system.pc.com_1.pwrStateResidencyTicks::UNDEFINED 346904632152000                       # Cumulative time (in ticks) in various power states
system.pc.fake_com_2.pwrStateResidencyTicks::UNDEFINED 346904632152000                       # Cumulative time (in ticks) in various power states
system.pc.fake_com_3.pwrStateResidencyTicks::UNDEFINED 346904632152000                       # Cumulative time (in ticks) in various power states
system.pc.fake_com_4.pwrStateResidencyTicks::UNDEFINED 346904632152000                       # Cumulative time (in ticks) in various power states
system.pc.fake_floppy.pwrStateResidencyTicks::UNDEFINED 346904632152000                       # Cumulative time (in ticks) in various power states
system.pc.i_dont_exist1.pwrStateResidencyTicks::UNDEFINED 346904632152000                       # Cumulative time (in ticks) in various power states
system.pc.i_dont_exist2.pwrStateResidencyTicks::UNDEFINED 346904632152000                       # Cumulative time (in ticks) in various power states
system.pc.pci_host.pwrStateResidencyTicks::UNDEFINED 346904632152000                       # Cumulative time (in ticks) in various power states
system.pc.south_bridge.cmos.pwrStateResidencyTicks::UNDEFINED 346904632152000                       # Cumulative time (in ticks) in various power states
system.pc.south_bridge.dma1.pwrStateResidencyTicks::UNDEFINED 346904632152000                       # Cumulative time (in ticks) in various power states
system.pc.south_bridge.ide.disks0.dma_read_bytes            0                       # Number of bytes transfered via DMA reads (not PRD).
system.pc.south_bridge.ide.disks0.dma_read_full_pages            0                       # Number of full page size DMA reads (not PRD).
system.pc.south_bridge.ide.disks0.dma_read_txs            0                       # Number of DMA read transactions (not PRD).
system.pc.south_bridge.ide.disks0.dma_write_bytes            0                       # Number of bytes transfered via DMA writes.
system.pc.south_bridge.ide.disks0.dma_write_full_pages            0                       # Number of full page size DMA writes.
system.pc.south_bridge.ide.disks0.dma_write_txs            0                       # Number of DMA write transactions.
system.pc.south_bridge.ide.disks1.dma_read_bytes            0                       # Number of bytes transfered via DMA reads (not PRD).
system.pc.south_bridge.ide.disks1.dma_read_full_pages            0                       # Number of full page size DMA reads (not PRD).
system.pc.south_bridge.ide.disks1.dma_read_txs            0                       # Number of DMA read transactions (not PRD).
system.pc.south_bridge.ide.disks1.dma_write_bytes            0                       # Number of bytes transfered via DMA writes.
system.pc.south_bridge.ide.disks1.dma_write_full_pages            0                       # Number of full page size DMA writes.
system.pc.south_bridge.ide.disks1.dma_write_txs            0                       # Number of DMA write transactions.
system.pc.south_bridge.ide.pwrStateResidencyTicks::UNDEFINED 346904632152000                       # Cumulative time (in ticks) in various power states
system.pc.south_bridge.io_apic.pwrStateResidencyTicks::UNDEFINED 346904632152000                       # Cumulative time (in ticks) in various power states
system.pc.south_bridge.keyboard.pwrStateResidencyTicks::UNDEFINED 346904632152000                       # Cumulative time (in ticks) in various power states
system.pc.south_bridge.pic1.pwrStateResidencyTicks::UNDEFINED 346904632152000                       # Cumulative time (in ticks) in various power states
system.pc.south_bridge.pic2.pwrStateResidencyTicks::UNDEFINED 346904632152000                       # Cumulative time (in ticks) in various power states
system.pc.south_bridge.pit.pwrStateResidencyTicks::UNDEFINED 346904632152000                       # Cumulative time (in ticks) in various power states
system.pc.south_bridge.speaker.pwrStateResidencyTicks::UNDEFINED 346904632152000                       # Cumulative time (in ticks) in various power states
system.pwrStateResidencyTicks::UNDEFINED 346904632152000                       # Cumulative time (in ticks) in various power states
system.switch_cpus.Branches                     17602                       # Number of branches fetched
system.switch_cpus.committedInsts               79215                       # Number of instructions committed
system.switch_cpus.committedOps                157287                       # Number of ops (including micro ops) committed
system.switch_cpus.dtb.pwrStateResidencyTicks::UNDEFINED 346904632152000                       # Cumulative time (in ticks) in various power states
system.switch_cpus.dtb.rdAccesses               22083                       # TLB accesses on read requests
system.switch_cpus.dtb.rdMisses                    20                       # TLB misses on read requests
system.switch_cpus.dtb.walker.pwrStateResidencyTicks::UNDEFINED 346904632152000                       # Cumulative time (in ticks) in various power states
system.switch_cpus.dtb.wrAccesses               14388                       # TLB accesses on write requests
system.switch_cpus.dtb.wrMisses                     3                       # TLB misses on write requests
system.switch_cpus.idle_fraction                    0                       # Percentage of idle cycles
system.switch_cpus.itb.pwrStateResidencyTicks::UNDEFINED 346904632152000                       # Cumulative time (in ticks) in various power states
system.switch_cpus.itb.rdAccesses                   0                       # TLB accesses on read requests
system.switch_cpus.itb.rdMisses                     0                       # TLB misses on read requests
system.switch_cpus.itb.walker.pwrStateResidencyTicks::UNDEFINED 346904632152000                       # Cumulative time (in ticks) in various power states
system.switch_cpus.itb.wrAccesses              103546                       # TLB accesses on write requests
system.switch_cpus.itb.wrMisses                    38                       # TLB misses on write requests
system.switch_cpus.kern.inst.arm                    0                       # number of arm instructions executed
system.switch_cpus.kern.inst.quiesce                0                       # number of quiesce instructions executed
system.switch_cpus.not_idle_fraction                1                       # Percentage of non-idle cycles
system.switch_cpus.numCycles                 15406922                       # number of cpu cycles simulated
system.switch_cpus.numWorkItemsCompleted            0                       # number of work items this cpu completed
system.switch_cpus.numWorkItemsStarted              0                       # number of work items this cpu started
system.switch_cpus.num_busy_cycles           15406922                       # Number of busy cycles
system.switch_cpus.num_cc_register_reads        75361                       # number of times the CC registers were read
system.switch_cpus.num_cc_register_writes        48223                       # number of times the CC registers were written
system.switch_cpus.num_conditional_control_insts        10830                       # number of instructions that are conditional controls
system.switch_cpus.num_fp_alu_accesses           5509                       # Number of float alu accesses
system.switch_cpus.num_fp_insts                  5509                       # number of float instructions
system.switch_cpus.num_fp_register_reads         7246                       # number of times the floating registers were read
system.switch_cpus.num_fp_register_writes         4057                       # number of times the floating registers were written
system.switch_cpus.num_func_calls                5280                       # number of times a function call or return occured
system.switch_cpus.num_idle_cycles                  0                       # Number of idle cycles
system.switch_cpus.num_int_alu_accesses        154209                       # Number of integer alu accesses
system.switch_cpus.num_int_insts               154209                       # number of integer instructions
system.switch_cpus.num_int_register_reads       303704                       # number of times the integer registers were read
system.switch_cpus.num_int_register_writes       120947                       # number of times the integer registers were written
system.switch_cpus.num_load_insts               22149                       # Number of load instructions
system.switch_cpus.num_mem_refs                 36567                       # number of memory refs
system.switch_cpus.num_store_insts              14418                       # Number of store instructions
system.switch_cpus.num_vec_alu_accesses             0                       # Number of vector alu accesses
system.switch_cpus.num_vec_insts                    0                       # number of vector instructions
system.switch_cpus.num_vec_register_reads            0                       # number of times the vector registers were read
system.switch_cpus.num_vec_register_writes            0                       # number of times the vector registers were written
system.switch_cpus.op_class::No_OpClass           544      0.35%      0.35% # Class of executed instruction
system.switch_cpus.op_class::IntAlu            117496     74.70%     75.04% # Class of executed instruction
system.switch_cpus.op_class::IntMult               73      0.05%     75.09% # Class of executed instruction
system.switch_cpus.op_class::IntDiv                21      0.01%     75.10% # Class of executed instruction
system.switch_cpus.op_class::FloatAdd               4      0.00%     75.11% # Class of executed instruction
system.switch_cpus.op_class::FloatCmp               0      0.00%     75.11% # Class of executed instruction
system.switch_cpus.op_class::FloatCvt               0      0.00%     75.11% # Class of executed instruction
system.switch_cpus.op_class::FloatMult              0      0.00%     75.11% # Class of executed instruction
system.switch_cpus.op_class::FloatMultAcc            0      0.00%     75.11% # Class of executed instruction
system.switch_cpus.op_class::FloatDiv               0      0.00%     75.11% # Class of executed instruction
system.switch_cpus.op_class::FloatMisc              0      0.00%     75.11% # Class of executed instruction
system.switch_cpus.op_class::FloatSqrt              0      0.00%     75.11% # Class of executed instruction
system.switch_cpus.op_class::SimdAdd                0      0.00%     75.11% # Class of executed instruction
system.switch_cpus.op_class::SimdAddAcc             0      0.00%     75.11% # Class of executed instruction
system.switch_cpus.op_class::SimdAlu              408      0.26%     75.37% # Class of executed instruction
system.switch_cpus.op_class::SimdCmp                0      0.00%     75.37% # Class of executed instruction
system.switch_cpus.op_class::SimdCvt               18      0.01%     75.38% # Class of executed instruction
system.switch_cpus.op_class::SimdMisc             742      0.47%     75.85% # Class of executed instruction
system.switch_cpus.op_class::SimdMult               0      0.00%     75.85% # Class of executed instruction
system.switch_cpus.op_class::SimdMultAcc            0      0.00%     75.85% # Class of executed instruction
system.switch_cpus.op_class::SimdShift              0      0.00%     75.85% # Class of executed instruction
system.switch_cpus.op_class::SimdShiftAcc            0      0.00%     75.85% # Class of executed instruction
system.switch_cpus.op_class::SimdSqrt               0      0.00%     75.85% # Class of executed instruction
system.switch_cpus.op_class::SimdFloatAdd          198      0.13%     75.98% # Class of executed instruction
system.switch_cpus.op_class::SimdFloatAlu            0      0.00%     75.98% # Class of executed instruction
system.switch_cpus.op_class::SimdFloatCmp            0      0.00%     75.98% # Class of executed instruction
system.switch_cpus.op_class::SimdFloatCvt          611      0.39%     76.36% # Class of executed instruction
system.switch_cpus.op_class::SimdFloatDiv          313      0.20%     76.56% # Class of executed instruction
system.switch_cpus.op_class::SimdFloatMisc            0      0.00%     76.56% # Class of executed instruction
system.switch_cpus.op_class::SimdFloatMult          298      0.19%     76.75% # Class of executed instruction
system.switch_cpus.op_class::SimdFloatMultAcc            0      0.00%     76.75% # Class of executed instruction
system.switch_cpus.op_class::SimdFloatSqrt            0      0.00%     76.75% # Class of executed instruction
system.switch_cpus.op_class::SimdAes                0      0.00%     76.75% # Class of executed instruction
system.switch_cpus.op_class::SimdAesMix             0      0.00%     76.75% # Class of executed instruction
system.switch_cpus.op_class::SimdSha1Hash            0      0.00%     76.75% # Class of executed instruction
system.switch_cpus.op_class::SimdSha1Hash2            0      0.00%     76.75% # Class of executed instruction
system.switch_cpus.op_class::SimdSha256Hash            0      0.00%     76.75% # Class of executed instruction
system.switch_cpus.op_class::SimdSha256Hash2            0      0.00%     76.75% # Class of executed instruction
system.switch_cpus.op_class::SimdShaSigma2            0      0.00%     76.75% # Class of executed instruction
system.switch_cpus.op_class::SimdShaSigma3            0      0.00%     76.75% # Class of executed instruction
system.switch_cpus.op_class::MemRead            20775     13.21%     89.96% # Class of executed instruction
system.switch_cpus.op_class::MemWrite           13293      8.45%     98.41% # Class of executed instruction
system.switch_cpus.op_class::FloatMemRead         1374      0.87%     99.28% # Class of executed instruction
system.switch_cpus.op_class::FloatMemWrite         1125      0.72%    100.00% # Class of executed instruction
system.switch_cpus.op_class::IprAccess              0      0.00%    100.00% # Class of executed instruction
system.switch_cpus.op_class::InstPrefetch            0      0.00%    100.00% # Class of executed instruction
system.switch_cpus.op_class::total             157293                       # Class of executed instruction
system.switch_cpus.pwrStateResidencyTicks::ON 686270728000                       # Cumulative time (in ticks) in various power states
system.voltage_domain.voltage                       1                       # Voltage in Volts

---------- End Simulation Statistics   ----------

---------- Begin Simulation Statistics ----------
final_tick                               346912922052000                       # Number of ticks from beginning of simulation (restored from checkpoints and never reset)
host_inst_rate                               17323539                       # Simulator instruction rate (inst/s)
host_mem_usage                                 963540                       # Number of bytes of host memory used
host_op_rate                                 32020146                       # Simulator op (including micro ops) rate (op/s)
host_seconds                                     0.45                       # Real time elapsed on the host
host_tick_rate                            18236022398                       # Simulator tick rate (ticks/s)
sim_freq                                 1000000000000                       # Frequency of simulated ticks
sim_insts                                     7873817                       # Number of instructions simulated
sim_ops                                      14555519                       # Number of ops (including micro ops) simulated
sim_seconds                                  0.008290                       # Number of seconds simulated
sim_ticks                                  8289900000                       # Number of ticks simulated
system.apicbridge.pwrStateResidencyTicks::UNDEFINED   8289900000                       # Cumulative time (in ticks) in various power states
system.bridge.pwrStateResidencyTicks::UNDEFINED   8289900000                       # Cumulative time (in ticks) in various power states
[...]
system.membus.pkt_count_system.cpu.dtb.walker.port::total            8                       # Packet count per connected master and slave (bytes)
system.membus.pkt_count::total                     80                       # Packet count per connected master and slave (bytes)
system.membus.pkt_size_system.cpu.icache_port::system.mem_ctrls.port          208                       # Cumulative packet size per connected master and slave (bytes)
system.membus.pkt_size_system.cpu.icache_port::total          208                       # Cumulative packet size per connected master and slave (bytes)
system.membus.pkt_size_system.cpu.dcache_port::system.mem_ctrls.port           64                       # Cumulative packet size per connected master and slave (bytes)
system.membus.pkt_size_system.cpu.dcache_port::total           64                       # Cumulative packet size per connected master and slave (bytes)
system.membus.pkt_size_system.cpu.dtb.walker.port::system.mem_ctrls.port           32                       # Cumulative packet size per connected master and slave (bytes)
system.membus.pkt_size_system.cpu.dtb.walker.port::total           32                       # Cumulative packet size per connected master and slave (bytes)
system.membus.pkt_size::total                     304                       # Cumulative packet size per connected master and slave (bytes)
system.membus.pwrStateResidencyTicks::UNDEFINED      2601000                       # Cumulative time (in ticks) in various power states
system.membus.reqLayer4.occupancy               42500                       # Layer occupancy (ticks)
system.membus.reqLayer4.utilization               1.6                       # Layer utilization (%)
system.membus.respLayer3.occupancy              59500                       # Layer occupancy (ticks)
system.membus.respLayer3.utilization              2.3                       # Layer utilization (%)
system.membus.respLayer4.occupancy              21750                       # Layer occupancy (ticks)
system.membus.respLayer4.utilization              0.8                       # Layer utilization (%)
system.membus.respLayer6.occupancy              10250                       # Layer occupancy (ticks)
system.membus.respLayer6.utilization              0.4                       # Layer utilization (%)
system.membus.snoopTraffic                          0                       # Total snoop traffic (bytes)
system.membus.snoop_fanout::samples                40                       # Request fanout histogram
system.membus.snoop_fanout::mean                    0                       # Request fanout histogram
system.membus.snoop_fanout::stdev                   0                       # Request fanout histogram
system.membus.snoop_fanout::underflows              0      0.00%      0.00% # Request fanout histogram
system.membus.snoop_fanout::0                      40    100.00%    100.00% # Request fanout histogram
system.membus.snoop_fanout::1                       0      0.00%    100.00% # Request fanout histogram
system.membus.snoop_fanout::overflows               0      0.00%    100.00% # Request fanout histogram
system.membus.snoop_fanout::min_value               0                       # Request fanout histogram
system.membus.snoop_fanout::max_value               0                       # Request fanout histogram
system.membus.snoop_fanout::total                  40                       # Request fanout histogram
system.membus.snoop_filter.hit_multi_requests            0                       # Number of requests hitting in the snoop filter with multiple (>1) holders of the requested data.
system.membus.snoop_filter.hit_multi_snoops            0                       # Number of snoops hitting in the snoop filter with multiple (>1) holders of the requested data.
system.membus.snoop_filter.hit_single_requests            0                       # Number of requests hitting in the snoop filter with a single holder of the requested data.
system.membus.snoop_filter.hit_single_snoops            0                       # Number of snoops hitting in the snoop filter with a single holder of the requested data.
system.membus.snoop_filter.tot_requests             0                       # Total number of requests made to the snoop filter.
system.membus.snoop_filter.tot_snoops               0                       # Total number of snoops made to the snoop filter.
system.membus.snoops                                0                       # Total snoops (count)
system.membus.trans_dist::ReadReq                  38                       # Transaction distribution
system.membus.trans_dist::ReadResp                 38                       # Transaction distribution
system.membus.trans_dist::WriteReq                  2                       # Transaction distribution
system.membus.trans_dist::WriteResp                 2                       # Transaction distribution
system.mmiofu.pwrStateResidencyTicks::UNDEFINED      2601000                       # Cumulative time (in ticks) in various power states
system.mmiofu_bridge.pwrStateResidencyTicks::UNDEFINED      2601000                       # Cumulative time (in ticks) in various power states
system.pc.behind_pci.pwrStateResidencyTicks::UNDEFINED      2601000                       # Cumulative time (in ticks) in various power states
system.pc.com_1.pwrStateResidencyTicks::UNDEFINED      2601000                       # Cumulative time (in ticks) in various power states
system.pc.fake_com_2.pwrStateResidencyTicks::UNDEFINED      2601000                       # Cumulative time (in ticks) in various power states
system.pc.fake_com_3.pwrStateResidencyTicks::UNDEFINED      2601000                       # Cumulative time (in ticks) in various power states
system.pc.fake_com_4.pwrStateResidencyTicks::UNDEFINED      2601000                       # Cumulative time (in ticks) in various power states
system.pc.fake_floppy.pwrStateResidencyTicks::UNDEFINED      2601000                       # Cumulative time (in ticks) in various power states
system.pc.i_dont_exist1.pwrStateResidencyTicks::UNDEFINED      2601000                       # Cumulative time (in ticks) in various power states
system.pc.i_dont_exist2.pwrStateResidencyTicks::UNDEFINED      2601000                       # Cumulative time (in ticks) in various power states
system.pc.pci_host.pwrStateResidencyTicks::UNDEFINED      2601000                       # Cumulative time (in ticks) in various power states
system.pc.south_bridge.cmos.pwrStateResidencyTicks::UNDEFINED      2601000                       # Cumulative time (in ticks) in various power states
system.pc.south_bridge.dma1.pwrStateResidencyTicks::UNDEFINED      2601000                       # Cumulative time (in ticks) in various power states
system.pc.south_bridge.ide.disks0.dma_read_bytes            0                       # Number of bytes transfered via DMA reads (not PRD).
system.pc.south_bridge.ide.disks0.dma_read_full_pages            0                       # Number of full page size DMA reads (not PRD).
system.pc.south_bridge.ide.disks0.dma_read_txs            0                       # Number of DMA read transactions (not PRD).
system.pc.south_bridge.ide.disks0.dma_write_bytes            0                       # Number of bytes transfered via DMA writes.
system.pc.south_bridge.ide.disks0.dma_write_full_pages            0                       # Number of full page size DMA writes.
system.pc.south_bridge.ide.disks0.dma_write_txs            0                       # Number of DMA write transactions.
system.pc.south_bridge.ide.disks1.dma_read_bytes            0                       # Number of bytes transfered via DMA reads (not PRD).
system.pc.south_bridge.ide.disks1.dma_read_full_pages            0                       # Number of full page size DMA reads (not PRD).
system.pc.south_bridge.ide.disks1.dma_read_txs            0                       # Number of DMA read transactions (not PRD).
system.pc.south_bridge.ide.disks1.dma_write_bytes            0                       # Number of bytes transfered via DMA writes.
system.pc.south_bridge.ide.disks1.dma_write_full_pages            0                       # Number of full page size DMA writes.
system.pc.south_bridge.ide.disks1.dma_write_txs            0                       # Number of DMA write transactions.
system.pc.south_bridge.ide.pwrStateResidencyTicks::UNDEFINED      2601000                       # Cumulative time (in ticks) in various power states
system.pc.south_bridge.io_apic.pwrStateResidencyTicks::UNDEFINED      2601000                       # Cumulative time (in ticks) in various power states
system.pc.south_bridge.keyboard.pwrStateResidencyTicks::UNDEFINED      2601000                       # Cumulative time (in ticks) in various power states
system.pc.south_bridge.pic1.pwrStateResidencyTicks::UNDEFINED      2601000                       # Cumulative time (in ticks) in various power states
system.pc.south_bridge.pic2.pwrStateResidencyTicks::UNDEFINED      2601000                       # Cumulative time (in ticks) in various power states
system.pc.south_bridge.pit.pwrStateResidencyTicks::UNDEFINED      2601000                       # Cumulative time (in ticks) in various power states
system.pc.south_bridge.speaker.pwrStateResidencyTicks::UNDEFINED      2601000                       # Cumulative time (in ticks) in various power states
system.pwrStateResidencyTicks::UNDEFINED      2601000                       # Cumulative time (in ticks) in various power states
system.switch_cpus.Branches                         4                       # Number of branches fetched
system.switch_cpus.committedInsts                  20                       # Number of instructions committed
system.switch_cpus.committedOps                    36                       # Number of ops (including micro ops) committed
system.switch_cpus.dtb.pwrStateResidencyTicks::UNDEFINED      2601000                       # Cumulative time (in ticks) in various power states
system.switch_cpus.dtb.rdAccesses                  10                       # TLB accesses on read requests
system.switch_cpus.dtb.rdMisses                     1                       # TLB misses on read requests
system.switch_cpus.dtb.walker.pwrStateResidencyTicks::UNDEFINED      2601000                       # Cumulative time (in ticks) in various power states
system.switch_cpus.dtb.wrAccesses                   2                       # TLB accesses on write requests
system.switch_cpus.dtb.wrMisses                     0                       # TLB misses on write requests
system.switch_cpus.idle_fraction                    0                       # Percentage of idle cycles
system.switch_cpus.itb.pwrStateResidencyTicks::UNDEFINED      2601000                       # Cumulative time (in ticks) in various power states
system.switch_cpus.itb.rdAccesses                   0                       # TLB accesses on read requests
system.switch_cpus.itb.rdMisses                     0                       # TLB misses on read requests
system.switch_cpus.itb.walker.pwrStateResidencyTicks::UNDEFINED      2601000                       # Cumulative time (in ticks) in various power states
system.switch_cpus.itb.wrAccesses                  26                       # TLB accesses on write requests
system.switch_cpus.itb.wrMisses                     0                       # TLB misses on write requests
system.switch_cpus.kern.inst.arm                    0                       # number of arm instructions executed
system.switch_cpus.kern.inst.quiesce                0                       # number of quiesce instructions executed
system.switch_cpus.not_idle_fraction                1                       # Percentage of non-idle cycles
system.switch_cpus.numCycles                     4622                       # number of cpu cycles simulated
system.switch_cpus.numWorkItemsCompleted            0                       # number of work items this cpu completed
system.switch_cpus.numWorkItemsStarted              0                       # number of work items this cpu started
system.switch_cpus.num_busy_cycles               4622                       # Number of busy cycles
system.switch_cpus.num_cc_register_reads            7                       # number of times the CC registers were read
system.switch_cpus.num_cc_register_writes            6                       # number of times the CC registers were written
system.switch_cpus.num_conditional_control_insts            1                       # number of instructions that are conditional controls
system.switch_cpus.num_fp_alu_accesses              8                       # Number of float alu accesses
system.switch_cpus.num_fp_insts                     8                       # number of float instructions
system.switch_cpus.num_fp_register_reads           11                       # number of times the floating registers were read
system.switch_cpus.num_fp_register_writes            7                       # number of times the floating registers were written
system.switch_cpus.num_func_calls                   2                       # number of times a function call or return occured
system.switch_cpus.num_idle_cycles                  0                       # Number of idle cycles
system.switch_cpus.num_int_alu_accesses            32                       # Number of integer alu accesses
system.switch_cpus.num_int_insts                   32                       # number of integer instructions
system.switch_cpus.num_int_register_reads           63                       # number of times the integer registers were read
system.switch_cpus.num_int_register_writes           23                       # number of times the integer registers were written
system.switch_cpus.num_load_insts                   8                       # Number of load instructions
system.switch_cpus.num_mem_refs                    10                       # number of memory refs
system.switch_cpus.num_store_insts                  2                       # Number of store instructions
system.switch_cpus.num_vec_alu_accesses             0                       # Number of vector alu accesses
system.switch_cpus.num_vec_insts                    0                       # number of vector instructions
system.switch_cpus.num_vec_register_reads            0                       # number of times the vector registers were read
system.switch_cpus.num_vec_register_writes            0                       # number of times the vector registers were written
system.switch_cpus.op_class::No_OpClass             0      0.00%      0.00% # Class of executed instruction
system.switch_cpus.op_class::IntAlu                21     58.33%     58.33% # Class of executed instruction
system.switch_cpus.op_class::IntMult                0      0.00%     58.33% # Class of executed instruction
system.switch_cpus.op_class::IntDiv                 0      0.00%     58.33% # Class of executed instruction
system.switch_cpus.op_class::FloatAdd               0      0.00%     58.33% # Class of executed instruction
system.switch_cpus.op_class::FloatCmp               0      0.00%     58.33% # Class of executed instruction
system.switch_cpus.op_class::FloatCvt               0      0.00%     58.33% # Class of executed instruction
system.switch_cpus.op_class::FloatMult              0      0.00%     58.33% # Class of executed instruction
system.switch_cpus.op_class::FloatMultAcc            0      0.00%     58.33% # Class of executed instruction
system.switch_cpus.op_class::FloatDiv               0      0.00%     58.33% # Class of executed instruction
system.switch_cpus.op_class::FloatMisc              0      0.00%     58.33% # Class of executed instruction
system.switch_cpus.op_class::FloatSqrt              0      0.00%     58.33% # Class of executed instruction
system.switch_cpus.op_class::SimdAdd                0      0.00%     58.33% # Class of executed instruction
system.switch_cpus.op_class::SimdAddAcc             0      0.00%     58.33% # Class of executed instruction
system.switch_cpus.op_class::SimdAlu                0      0.00%     58.33% # Class of executed instruction
system.switch_cpus.op_class::SimdCmp                0      0.00%     58.33% # Class of executed instruction
system.switch_cpus.op_class::SimdCvt                0      0.00%     58.33% # Class of executed instruction
system.switch_cpus.op_class::SimdMisc               1      2.78%     61.11% # Class of executed instruction
system.switch_cpus.op_class::SimdMult               0      0.00%     61.11% # Class of executed instruction
system.switch_cpus.op_class::SimdMultAcc            0      0.00%     61.11% # Class of executed instruction
system.switch_cpus.op_class::SimdShift              0      0.00%     61.11% # Class of executed instruction
system.switch_cpus.op_class::SimdShiftAcc            0      0.00%     61.11% # Class of executed instruction
system.switch_cpus.op_class::SimdSqrt               0      0.00%     61.11% # Class of executed instruction
system.switch_cpus.op_class::SimdFloatAdd            1      2.78%     63.89% # Class of executed instruction
system.switch_cpus.op_class::SimdFloatAlu            0      0.00%     63.89% # Class of executed instruction
system.switch_cpus.op_class::SimdFloatCmp            0      0.00%     63.89% # Class of executed instruction
system.switch_cpus.op_class::SimdFloatCvt            2      5.56%     69.44% # Class of executed instruction
system.switch_cpus.op_class::SimdFloatDiv            0      0.00%     69.44% # Class of executed instruction
system.switch_cpus.op_class::SimdFloatMisc            0      0.00%     69.44% # Class of executed instruction
system.switch_cpus.op_class::SimdFloatMult            1      2.78%     72.22% # Class of executed instruction
system.switch_cpus.op_class::SimdFloatMultAcc            0      0.00%     72.22% # Class of executed instruction
system.switch_cpus.op_class::SimdFloatSqrt            0      0.00%     72.22% # Class of executed instruction
system.switch_cpus.op_class::SimdAes                0      0.00%     72.22% # Class of executed instruction
system.switch_cpus.op_class::SimdAesMix             0      0.00%     72.22% # Class of executed instruction
system.switch_cpus.op_class::SimdSha1Hash            0      0.00%     72.22% # Class of executed instruction
system.switch_cpus.op_class::SimdSha1Hash2            0      0.00%     72.22% # Class of executed instruction
system.switch_cpus.op_class::SimdSha256Hash            0      0.00%     72.22% # Class of executed instruction
system.switch_cpus.op_class::SimdSha256Hash2            0      0.00%     72.22% # Class of executed instruction
system.switch_cpus.op_class::SimdShaSigma2            0      0.00%     72.22% # Class of executed instruction
system.switch_cpus.op_class::SimdShaSigma3            0      0.00%     72.22% # Class of executed instruction
system.switch_cpus.op_class::MemRead                5     13.89%     86.11% # Class of executed instruction
system.switch_cpus.op_class::MemWrite               2      5.56%     91.67% # Class of executed instruction
system.switch_cpus.op_class::FloatMemRead            3      8.33%    100.00% # Class of executed instruction
system.switch_cpus.op_class::FloatMemWrite            0      0.00%    100.00% # Class of executed instruction
system.switch_cpus.op_class::IprAccess              0      0.00%    100.00% # Class of executed instruction
system.switch_cpus.op_class::InstPrefetch            0      0.00%    100.00% # Class of executed instruction
system.switch_cpus.op_class::total                 36                       # Class of executed instruction
system.switch_cpus.pwrStateResidencyTicks::ON      2601000                       # Cumulative time (in ticks) in various power states
system.voltage_domain.voltage                       1                       # Voltage in Volts

---------- End Simulation Statistics   ----------
