
---------- Begin Simulation Statistics ----------
final_tick                               353561837950000                       # Number of ticks from beginning of simulation (restored from checkpoints and never reset)
host_inst_rate                              189809162                       # Simulator instruction rate (inst/s)
host_mem_usage                                 994260                       # Number of bytes of host memory used
host_op_rate                                348556920                       # Simulator op (including micro ops) rate (op/s)
host_seconds                                     0.41                       # Real time elapsed on the host
host_tick_rate                            17864995898                       # Simulator tick rate (ticks/s)
sim_freq                                 1000000000000                       # Frequency of simulated ticks
sim_insts                                    78236380                       # Number of instructions simulated
sim_ops                                     143699507                       # Number of ops (including micro ops) simulated
sim_seconds                                  0.007365                       # Number of seconds simulated
sim_ticks                                  7365482000                       # Number of ticks simulated
system.apicbridge.pwrStateResidencyTicks::UNDEFINED 353561837950000                       # Cumulative time (in ticks) in various power states
system.bridge.pwrStateResidencyTicks::UNDEFINED 353561837950000                       # Cumulative time (in ticks) in various power states
system.clk_domain.clock                          1000                       # Clock period in ticks
system.cpu.apic_clk_domain.clock                 8000                       # Clock period in ticks
system.cpu.committedInsts                           0                       # Number of instructions committed
system.cpu.committedOps                             0                       # Number of ops (including micro ops) committed
system.cpu.dtb.pwrStateResidencyTicks::UNDEFINED 353561837950000                       # Cumulative time (in ticks) in various power states
system.cpu.dtb.rdAccesses                           0                       # TLB accesses on read requests
system.cpu.dtb.rdMisses                             0                       # TLB misses on read requests
system.cpu.dtb.walker.pwrStateResidencyTicks::UNDEFINED 353561837950000                       # Cumulative time (in ticks) in various power states
system.cpu.dtb.wrAccesses                           0                       # TLB accesses on write requests
system.cpu.dtb.wrMisses                             0                       # TLB misses on write requests
system.cpu.idle_fraction                            0                       # Percentage of idle cycles
system.cpu.interrupts.pwrStateResidencyTicks::UNDEFINED 353561837950000                       # Cumulative time (in ticks) in various power states
system.cpu.itb.pwrStateResidencyTicks::UNDEFINED 353561837950000                       # Cumulative time (in ticks) in various power states
system.cpu.itb.rdAccesses                           0                       # TLB accesses on read requests
system.cpu.itb.rdMisses                             0                       # TLB misses on read requests
system.cpu.itb.walker.pwrStateResidencyTicks::UNDEFINED 353561837950000                       # Cumulative time (in ticks) in various power states
system.cpu.itb.wrAccesses                           0                       # TLB accesses on write requests
system.cpu.itb.wrMisses                             0                       # TLB misses on write requests
system.cpu.kern.inst.arm                            0                       # number of arm instructions executed
system.cpu.kern.inst.quiesce                        0                       # number of quiesce instructions executed
system.cpu.not_idle_fraction                        1                       # Percentage of non-idle cycles
system.cpu.numCycles                                0                       # number of cpu cycles simulated
system.cpu.numWorkItemsCompleted                    0                       # number of work items this cpu completed
system.cpu.numWorkItemsStarted                      0                       # number of work items this cpu started
system.cpu.num_busy_cycles                          0                       # Number of busy cycles
system.cpu.num_conditional_control_insts            0                       # number of instructions that are conditional controls
system.cpu.num_fp_alu_accesses                      0                       # Number of float alu accesses
system.cpu.num_fp_insts                             0                       # number of float instructions
system.cpu.num_fp_register_reads                    0                       # number of times the floating registers were read
system.cpu.num_fp_register_writes                   0                       # number of times the floating registers were written
system.cpu.num_func_calls                           0                       # number of times a function call or return occured
system.cpu.num_idle_cycles                          0                       # Number of idle cycles
system.cpu.num_int_alu_accesses                     0                       # Number of integer alu accesses
system.cpu.num_int_insts                            0                       # number of integer instructions
system.cpu.num_int_register_reads                   0                       # number of times the integer registers were read
system.cpu.num_int_register_writes                  0                       # number of times the integer registers were written
system.cpu.num_load_insts                           0                       # Number of load instructions
system.cpu.num_mem_refs                             0                       # number of memory refs
system.cpu.num_store_insts                          0                       # Number of store instructions
system.cpu.num_vec_alu_accesses                     0                       # Number of vector alu accesses
system.cpu.num_vec_insts                            0                       # number of vector instructions
system.cpu.num_vec_register_reads                   0                       # number of times the vector registers were read
system.cpu.num_vec_register_writes                  0                       # number of times the vector registers were written
system.cpu.op_class::No_OpClass                     0                       # Class of executed instruction
system.cpu.op_class::IntAlu                         0                       # Class of executed instruction
system.cpu.op_class::IntMult                        0                       # Class of executed instruction
system.cpu.op_class::IntDiv                         0                       # Class of executed instruction
system.cpu.op_class::FloatAdd                       0                       # Class of executed instruction
system.cpu.op_class::FloatCmp                       0                       # Class of executed instruction
system.cpu.op_class::FloatCvt                       0                       # Class of executed instruction
system.cpu.op_class::FloatMult                      0                       # Class of executed instruction
system.cpu.op_class::FloatMultAcc                   0                       # Class of executed instruction
system.cpu.op_class::FloatDiv                       0                       # Class of executed instruction
system.cpu.op_class::FloatMisc                      0                       # Class of executed instruction
system.cpu.op_class::FloatSqrt                      0                       # Class of executed instruction
system.cpu.op_class::SimdAdd                        0                       # Class of executed instruction
system.cpu.op_class::SimdAddAcc                     0                       # Class of executed instruction
system.cpu.op_class::SimdAlu                        0                       # Class of executed instruction
system.cpu.op_class::SimdCmp                        0                       # Class of executed instruction
system.cpu.op_class::SimdCvt                        0                       # Class of executed instruction
system.cpu.op_class::SimdMisc                       0                       # Class of executed instruction
system.cpu.op_class::SimdMult                       0                       # Class of executed instruction
system.cpu.op_class::SimdMultAcc                    0                       # Class of executed instruction
system.cpu.op_class::SimdShift                      0                       # Class of executed instruction
system.cpu.op_class::SimdShiftAcc                   0                       # Class of executed instruction
system.cpu.op_class::SimdSqrt                       0                       # Class of executed instruction
system.cpu.op_class::SimdFloatAdd                   0                       # Class of executed instruction
system.cpu.op_class::SimdFloatAlu                   0                       # Class of executed instruction
system.cpu.op_class::SimdFloatCmp                   0                       # Class of executed instruction
system.cpu.op_class::SimdFloatCvt                   0                       # Class of executed instruction
system.cpu.op_class::SimdFloatDiv                   0                       # Class of executed instruction
system.cpu.op_class::SimdFloatMisc                  0                       # Class of executed instruction
system.cpu.op_class::SimdFloatMult                  0                       # Class of executed instruction
system.cpu.op_class::SimdFloatMultAcc               0                       # Class of executed instruction
system.cpu.op_class::SimdFloatSqrt                  0                       # Class of executed instruction
system.cpu.op_class::SimdAes                        0                       # Class of executed instruction
system.cpu.op_class::SimdAesMix                     0                       # Class of executed instruction
system.cpu.op_class::SimdSha1Hash                   0                       # Class of executed instruction
system.cpu.op_class::SimdSha1Hash2                  0                       # Class of executed instruction
system.cpu.op_class::SimdSha256Hash                 0                       # Class of executed instruction
system.cpu.op_class::SimdSha256Hash2                0                       # Class of executed instruction
system.cpu.op_class::SimdShaSigma2                  0                       # Class of executed instruction
system.cpu.op_class::SimdShaSigma3                  0                       # Class of executed instruction
system.cpu.op_class::MemRead                        0                       # Class of executed instruction
system.cpu.op_class::MemWrite                       0                       # Class of executed instruction
system.cpu.op_class::FloatMemRead                   0                       # Class of executed instruction
system.cpu.op_class::FloatMemWrite                  0                       # Class of executed instruction
system.cpu.op_class::IprAccess                      0                       # Class of executed instruction
system.cpu.op_class::InstPrefetch                   0                       # Class of executed instruction
system.cpu.op_class::total                          0                       # Class of executed instruction
system.cpu.pwrStateResidencyTicks::OFF   8430698034500                       # Cumulative time (in ticks) in various power states
system.cpu_clk_domain.clock                       500                       # Clock period in ticks
system.cpu_voltage_domain.voltage                   1                       # Voltage in Volts
system.iobridge.pwrStateResidencyTicks::UNDEFINED 353561837950000                       # Cumulative time (in ticks) in various power states
system.iobus.pkt_count_system.bridge.master::system.pc.com_1.pio          232                       # Packet count per connected master and slave (bytes)
system.iobus.pkt_count_system.bridge.master::total          232                       # Packet count per connected master and slave (bytes)
system.iobus.pkt_count_system.pc.south_bridge.io_apic.int_master::system.apicbridge.slave           58                       # Packet count per connected master and slave (bytes)
system.iobus.pkt_count_system.pc.south_bridge.io_apic.int_master::total           58                       # Packet count per connected master and slave (bytes)
system.iobus.pkt_count::total                     290                       # Packet count per connected master and slave (bytes)
system.iobus.pkt_size_system.bridge.master::system.pc.com_1.pio          116                       # Cumulative packet size per connected master and slave (bytes)
system.iobus.pkt_size_system.bridge.master::total          116                       # Cumulative packet size per connected master and slave (bytes)
system.iobus.pkt_size_system.pc.south_bridge.io_apic.int_master::system.apicbridge.slave          116                       # Cumulative packet size per connected master and slave (bytes)
system.iobus.pkt_size_system.pc.south_bridge.io_apic.int_master::total          116                       # Cumulative packet size per connected master and slave (bytes)
system.iobus.pkt_size::total                      232                       # Cumulative packet size per connected master and slave (bytes)
system.iobus.pwrStateResidencyTicks::UNDEFINED 353561837950000                       # Cumulative time (in ticks) in various power states
system.iobus.reqLayer0.occupancy                58000                       # Layer occupancy (ticks)
system.iobus.reqLayer0.utilization                0.0                       # Layer utilization (%)
system.iobus.reqLayer13.occupancy              149000                       # Layer occupancy (ticks)
system.iobus.reqLayer13.utilization               0.0                       # Layer utilization (%)
system.iobus.respLayer0.occupancy              199000                       # Layer occupancy (ticks)
system.iobus.respLayer0.utilization               0.0                       # Layer utilization (%)
system.iobus.respLayer3.occupancy               29000                       # Layer occupancy (ticks)
system.iobus.respLayer3.utilization               0.0                       # Layer utilization (%)
system.iobus.trans_dist::ReadReq                   83                       # Transaction distribution
system.iobus.trans_dist::ReadResp                  83                       # Transaction distribution
system.iobus.trans_dist::WriteReq                  33                       # Transaction distribution
system.iobus.trans_dist::WriteResp                 33                       # Transaction distribution
system.iobus.trans_dist::MessageReq                29                       # Transaction distribution
system.iobus.trans_dist::MessageResp               29                       # Transaction distribution
system.mem_ctrls.avgBusLat                    5000.00                       # Average bus latency per DRAM burst
system.mem_ctrls.avgGap                      55323.51                       # Average gap between requests
system.mem_ctrls.avgMemAccLat                29206.73                       # Average memory access latency per DRAM burst
system.mem_ctrls.avgPriority_.switch_cpus.dtb.walker::samples        91.00                       # Average QoS priority value for accepted requests
system.mem_ctrls.avgPriority_.switch_cpus.itb.walker::samples       110.00                       # Average QoS priority value for accepted requests
system.mem_ctrls.avgPriority_.switch_cpus.inst::samples    100493.00                       # Average QoS priority value for accepted requests
system.mem_ctrls.avgPriority_.switch_cpus.data::samples     18323.00                       # Average QoS priority value for accepted requests
system.mem_ctrls.avgQLat                     10456.73                       # Average queueing delay per DRAM burst
system.mem_ctrls.avgRdBW                      1026.25                       # Average DRAM read bandwidth in MiByte/s
system.mem_ctrls.avgRdBWSys                    127.46                       # Average system read bandwidth in MiByte/s
system.mem_ctrls.avgRdQLen                       1.00                       # Average read queue length when enqueuing
system.mem_ctrls.avgWrBW                         7.95                       # Average achieved write bandwidth in MiByte/s
system.mem_ctrls.avgWrBWSys                     11.19                       # Average system write bandwidth in MiByte/s
system.mem_ctrls.avgWrQLen                      24.49                       # Average write queue length when enqueuing
system.mem_ctrls.busUtil                         8.08                       # Data bus utilization in percentage
system.mem_ctrls.busUtilRead                     8.02                       # Data bus utilization in percentage for reads
system.mem_ctrls.busUtilWrite                    0.06                       # Data bus utilization in percentage for writes
system.mem_ctrls.bw_inst_read::.switch_cpus.inst    109150223                       # Instruction read bandwidth from this memory (bytes/s)
system.mem_ctrls.bw_inst_read::total        109150223                       # Instruction read bandwidth from this memory (bytes/s)
system.mem_ctrls.bw_read::.switch_cpus.dtb.walker       103184                       # Total read bandwidth from this memory (bytes/s)
system.mem_ctrls.bw_read::.switch_cpus.itb.walker       130338                       # Total read bandwidth from this memory (bytes/s)
system.mem_ctrls.bw_read::.switch_cpus.inst    109150223                       # Total read bandwidth from this memory (bytes/s)
system.mem_ctrls.bw_read::.switch_cpus.data     18073223                       # Total read bandwidth from this memory (bytes/s)
system.mem_ctrls.bw_read::total             127456968                       # Total read bandwidth from this memory (bytes/s)
system.mem_ctrls.bw_total::.switch_cpus.dtb.walker       103184                       # Total bandwidth to/from this memory (bytes/s)
system.mem_ctrls.bw_total::.switch_cpus.itb.walker       130338                       # Total bandwidth to/from this memory (bytes/s)
system.mem_ctrls.bw_total::.switch_cpus.inst    109150223                       # Total bandwidth to/from this memory (bytes/s)
system.mem_ctrls.bw_total::.switch_cpus.data     29259592                       # Total bandwidth to/from this memory (bytes/s)
system.mem_ctrls.bw_total::total            138643337                       # Total bandwidth to/from this memory (bytes/s)
system.mem_ctrls.bw_write::.switch_cpus.data     11186369                       # Write bandwidth from this memory (bytes/s)
system.mem_ctrls.bw_write::total             11186369                       # Write bandwidth from this memory (bytes/s)
system.mem_ctrls.bytesPerActivate::samples        15614                       # Bytes accessed per row activation
system.mem_ctrls.bytesPerActivate::mean    487.931344                       # Bytes accessed per row activation
system.mem_ctrls.bytesPerActivate::gmean   299.698677                       # Bytes accessed per row activation
system.mem_ctrls.bytesPerActivate::stdev   396.474573                       # Bytes accessed per row activation
system.mem_ctrls.bytesPerActivate::0-127         3598     23.04%     23.04% # Bytes accessed per row activation
system.mem_ctrls.bytesPerActivate::128-255         2934     18.79%     41.83% # Bytes accessed per row activation
system.mem_ctrls.bytesPerActivate::256-383         1331      8.52%     50.36% # Bytes accessed per row activation
system.mem_ctrls.bytesPerActivate::384-511         1089      6.97%     57.33% # Bytes accessed per row activation
system.mem_ctrls.bytesPerActivate::512-639          744      4.76%     62.10% # Bytes accessed per row activation
system.mem_ctrls.bytesPerActivate::640-767          505      3.23%     65.33% # Bytes accessed per row activation
system.mem_ctrls.bytesPerActivate::768-895          623      3.99%     69.32% # Bytes accessed per row activation
system.mem_ctrls.bytesPerActivate::896-1023          418      2.68%     72.00% # Bytes accessed per row activation
system.mem_ctrls.bytesPerActivate::1024-1151         4372     28.00%    100.00% # Bytes accessed per row activation
system.mem_ctrls.bytesPerActivate::total        15614                       # Bytes accessed per row activation
system.mem_ctrls.bytesReadDRAM                7558848                       # Total number of bytes read from DRAM
system.mem_ctrls.bytesReadSys                  938782                       # Total read bytes from the system interface side
system.mem_ctrls.bytesReadWrQ                  199168                       # Total number of bytes read from write queue
system.mem_ctrls.bytesWritten                   58560                       # Total number of bytes written to DRAM
system.mem_ctrls.bytesWrittenSys                82393                       # Total written bytes from the system interface side
system.mem_ctrls.bytes_inst_read::.switch_cpus.inst       803944                       # Number of instructions bytes read from this memory
system.mem_ctrls.bytes_inst_read::total        803944                       # Number of instructions bytes read from this memory
system.mem_ctrls.bytes_read::.switch_cpus.dtb.walker          760                       # Number of bytes read from this memory
system.mem_ctrls.bytes_read::.switch_cpus.itb.walker          960                       # Number of bytes read from this memory
system.mem_ctrls.bytes_read::.switch_cpus.inst       803944                       # Number of bytes read from this memory
system.mem_ctrls.bytes_read::.switch_cpus.data       133118                       # Number of bytes read from this memory
system.mem_ctrls.bytes_read::total             938782                       # Number of bytes read from this memory
system.mem_ctrls.bytes_written::.switch_cpus.data        82393                       # Number of bytes written to this memory
system.mem_ctrls.bytes_written::total           82393                       # Number of bytes written to this memory
system.mem_ctrls.masterReadAccesses::.switch_cpus.dtb.walker           95                       # Per-master read serviced memory accesses
system.mem_ctrls.masterReadAccesses::.switch_cpus.itb.walker          120                       # Per-master read serviced memory accesses
system.mem_ctrls.masterReadAccesses::.switch_cpus.inst       100493                       # Per-master read serviced memory accesses
system.mem_ctrls.masterReadAccesses::.switch_cpus.data        20511                       # Per-master read serviced memory accesses
system.mem_ctrls.masterReadAvgLat::.switch_cpus.dtb.walker     49118.42                       # Per-master read average memory access latency
system.mem_ctrls.masterReadAvgLat::.switch_cpus.itb.walker     42920.83                       # Per-master read average memory access latency
system.mem_ctrls.masterReadAvgLat::.switch_cpus.inst     28323.13                       # Per-master read average memory access latency
system.mem_ctrls.masterReadAvgLat::.switch_cpus.data     28932.09                       # Per-master read average memory access latency
system.mem_ctrls.masterReadBytes::.switch_cpus.dtb.walker          728                       # Per-master bytes read from memory
system.mem_ctrls.masterReadBytes::.switch_cpus.itb.walker          880                       # Per-master bytes read from memory
system.mem_ctrls.masterReadBytes::.switch_cpus.inst       803944                       # Per-master bytes read from memory
system.mem_ctrls.masterReadBytes::.switch_cpus.data       114075                       # Per-master bytes read from memory
system.mem_ctrls.masterReadRate::.switch_cpus.dtb.walker 98839.424222338741                       # Per-master bytes read from memory rate (Bytes/sec)
system.mem_ctrls.masterReadRate::.switch_cpus.itb.walker 119476.227081947931                       # Per-master bytes read from memory rate (Bytes/sec)
system.mem_ctrls.masterReadRate::.switch_cpus.inst 109150222.619510859251                       # Per-master bytes read from memory rate (Bytes/sec)
system.mem_ctrls.masterReadRate::.switch_cpus.data 15487784.777696831152                       # Per-master bytes read from memory rate (Bytes/sec)
system.mem_ctrls.masterReadTotalLat::.switch_cpus.dtb.walker      4666250                       # Per-master read total memory access latency
system.mem_ctrls.masterReadTotalLat::.switch_cpus.itb.walker      5150500                       # Per-master read total memory access latency
system.mem_ctrls.masterReadTotalLat::.switch_cpus.inst   2846276000                       # Per-master read total memory access latency
system.mem_ctrls.masterReadTotalLat::.switch_cpus.data    593426000                       # Per-master read total memory access latency
system.mem_ctrls.masterWriteAccesses::.switch_cpus.data        11916                       # Per-master write serviced memory accesses
system.mem_ctrls.masterWriteAvgLat::.switch_cpus.data  14988401.83                       # Per-master write average memory access latency
system.mem_ctrls.masterWriteBytes::.switch_cpus.data         5849                       # Per-master bytes write to memory
system.mem_ctrls.masterWriteRate::.switch_cpus.data 794109.604775356245                       # Per-master bytes write to memory rate (Bytes/sec)
system.mem_ctrls.masterWriteTotalLat::.switch_cpus.data 178601796250                       # Per-master write total memory access latency
system.mem_ctrls.mergedWrBursts                 11006                       # Number of DRAM write bursts merged with an existing one
system.mem_ctrls.neitherReadNorWriteReqs            0                       # Number of requests that are neither read nor write
system.mem_ctrls.numRdRetry                         0                       # Number of times read queue was full causing retry
system.mem_ctrls.numReadWriteTurnArounds           57                       # Number of turnarounds from READ to WRITE
system.mem_ctrls.numStayReadState              249941                       # Number of times bus staying in READ state
system.mem_ctrls.numStayWriteState                858                       # Number of times bus staying in WRITE state
system.mem_ctrls.numWrRetry                         0                       # Number of times write queue was full causing retry
system.mem_ctrls.numWriteReadTurnArounds           57                       # Number of turnarounds from WRITE to READ
system.mem_ctrls.num_reads::.switch_cpus.dtb.walker           95                       # Number of read requests responded to by this memory
system.mem_ctrls.num_reads::.switch_cpus.itb.walker          120                       # Number of read requests responded to by this memory
system.mem_ctrls.num_reads::.switch_cpus.inst       100493                       # Number of read requests responded to by this memory
system.mem_ctrls.num_reads::.switch_cpus.data        20511                       # Number of read requests responded to by this memory
system.mem_ctrls.num_reads::total              121219                       # Number of read requests responded to by this memory
system.mem_ctrls.num_writes::.switch_cpus.data        11916                       # Number of write requests responded to by this memory
system.mem_ctrls.num_writes::total              11916                       # Number of write requests responded to by this memory
system.mem_ctrls.pageHitRate                    86.89                       # Row buffer hit rate, read and write combined
system.mem_ctrls.peakBW                      12800.00                       # Theoretical peak bandwidth in MiByte/s
system.mem_ctrls.perBankRdBursts::0             14810                       # Per bank write bursts
system.mem_ctrls.perBankRdBursts::1              6963                       # Per bank write bursts
system.mem_ctrls.perBankRdBursts::2             20934                       # Per bank write bursts
system.mem_ctrls.perBankRdBursts::3              6627                       # Per bank write bursts
system.mem_ctrls.perBankRdBursts::4              5213                       # Per bank write bursts
system.mem_ctrls.perBankRdBursts::5              8629                       # Per bank write bursts
system.mem_ctrls.perBankRdBursts::6             27481                       # Per bank write bursts
system.mem_ctrls.perBankRdBursts::7              4910                       # Per bank write bursts
system.mem_ctrls.perBankRdBursts::8              1907                       # Per bank write bursts
system.mem_ctrls.perBankRdBursts::9              7832                       # Per bank write bursts
system.mem_ctrls.perBankRdBursts::10             3513                       # Per bank write bursts
system.mem_ctrls.perBankRdBursts::11             1238                       # Per bank write bursts
system.mem_ctrls.perBankRdBursts::12              977                       # Per bank write bursts
system.mem_ctrls.perBankRdBursts::13             2369                       # Per bank write bursts
system.mem_ctrls.perBankRdBursts::14             1893                       # Per bank write bursts
system.mem_ctrls.perBankRdBursts::15             2811                       # Per bank write bursts
system.mem_ctrls.perBankWrBursts::0                28                       # Per bank write bursts
system.mem_ctrls.perBankWrBursts::1               119                       # Per bank write bursts
system.mem_ctrls.perBankWrBursts::2                36                       # Per bank write bursts
system.mem_ctrls.perBankWrBursts::3               261                       # Per bank write bursts
system.mem_ctrls.perBankWrBursts::4                18                       # Per bank write bursts
system.mem_ctrls.perBankWrBursts::5                99                       # Per bank write bursts
system.mem_ctrls.perBankWrBursts::6               130                       # Per bank write bursts
system.mem_ctrls.perBankWrBursts::7                35                       # Per bank write bursts
system.mem_ctrls.perBankWrBursts::8                32                       # Per bank write bursts
system.mem_ctrls.perBankWrBursts::9                20                       # Per bank write bursts
system.mem_ctrls.perBankWrBursts::10               42                       # Per bank write bursts
system.mem_ctrls.perBankWrBursts::11               54                       # Per bank write bursts
system.mem_ctrls.perBankWrBursts::12                3                       # Per bank write bursts
system.mem_ctrls.perBankWrBursts::13                7                       # Per bank write bursts
system.mem_ctrls.perBankWrBursts::14                1                       # Per bank write bursts
system.mem_ctrls.perBankWrBursts::15               30                       # Per bank write bursts
system.mem_ctrls.priorityMaxLatency      0.007433596000                       # per QoS priority maximum request to response latency (s)
system.mem_ctrls.priorityMinLatency      0.000000018750                       # per QoS priority minimum request to response latency (s)
system.mem_ctrls.pwrStateResidencyTicks::UNDEFINED 353561837950000                       # Cumulative time (in ticks) in various power states
system.mem_ctrls.rdPerTurnAround::samples           57                       # Reads before turning the bus around for writes
system.mem_ctrls.rdPerTurnAround::mean    2074.035088                       # Reads before turning the bus around for writes
system.mem_ctrls.rdPerTurnAround::gmean    976.612151                       # Reads before turning the bus around for writes
system.mem_ctrls.rdPerTurnAround::stdev   5519.070522                       # Reads before turning the bus around for writes
system.mem_ctrls.rdPerTurnAround::0-2047           48     84.21%     84.21% # Reads before turning the bus around for writes
system.mem_ctrls.rdPerTurnAround::2048-4095            6     10.53%     94.74% # Reads before turning the bus around for writes
system.mem_ctrls.rdPerTurnAround::6144-8191            1      1.75%     96.49% # Reads before turning the bus around for writes
system.mem_ctrls.rdPerTurnAround::12288-14335            1      1.75%     98.25% # Reads before turning the bus around for writes
system.mem_ctrls.rdPerTurnAround::38912-40959            1      1.75%    100.00% # Reads before turning the bus around for writes
system.mem_ctrls.rdPerTurnAround::total            57                       # Reads before turning the bus around for writes
system.mem_ctrls.rdQLenPdf::0                  118103                       # What read queue length does an incoming req see
system.mem_ctrls.rdQLenPdf::1                       4                       # What read queue length does an incoming req see
system.mem_ctrls.rdQLenPdf::2                       0                       # What read queue length does an incoming req see
system.mem_ctrls.rdQLenPdf::3                       0                       # What read queue length does an incoming req see
system.mem_ctrls.rdQLenPdf::4                       0                       # What read queue length does an incoming req see
system.mem_ctrls.rdQLenPdf::5                       0                       # What read queue length does an incoming req see
system.mem_ctrls.rdQLenPdf::6                       0                       # What read queue length does an incoming req see
system.mem_ctrls.rdQLenPdf::7                       0                       # What read queue length does an incoming req see
system.mem_ctrls.rdQLenPdf::8                       0                       # What read queue length does an incoming req see
system.mem_ctrls.rdQLenPdf::9                       0                       # What read queue length does an incoming req see
system.mem_ctrls.rdQLenPdf::10                      0                       # What read queue length does an incoming req see
system.mem_ctrls.rdQLenPdf::11                      0                       # What read queue length does an incoming req see
system.mem_ctrls.rdQLenPdf::12                      0                       # What read queue length does an incoming req see
system.mem_ctrls.rdQLenPdf::13                      0                       # What read queue length does an incoming req see
system.mem_ctrls.rdQLenPdf::14                      0                       # What read queue length does an incoming req see
system.mem_ctrls.rdQLenPdf::15                      0                       # What read queue length does an incoming req see
system.mem_ctrls.rdQLenPdf::16                      0                       # What read queue length does an incoming req see
system.mem_ctrls.rdQLenPdf::17                      0                       # What read queue length does an incoming req see
system.mem_ctrls.rdQLenPdf::18                      0                       # What read queue length does an incoming req see
system.mem_ctrls.rdQLenPdf::19                      0                       # What read queue length does an incoming req see
system.mem_ctrls.rdQLenPdf::20                      0                       # What read queue length does an incoming req see
system.mem_ctrls.rdQLenPdf::21                      0                       # What read queue length does an incoming req see
system.mem_ctrls.rdQLenPdf::22                      0                       # What read queue length does an incoming req see
system.mem_ctrls.rdQLenPdf::23                      0                       # What read queue length does an incoming req see
system.mem_ctrls.rdQLenPdf::24                      0                       # What read queue length does an incoming req see
system.mem_ctrls.rdQLenPdf::25                      0                       # What read queue length does an incoming req see
system.mem_ctrls.rdQLenPdf::26                      0                       # What read queue length does an incoming req see
system.mem_ctrls.rdQLenPdf::27                      0                       # What read queue length does an incoming req see
system.mem_ctrls.rdQLenPdf::28                      0                       # What read queue length does an incoming req see
system.mem_ctrls.rdQLenPdf::29                      0                       # What read queue length does an incoming req see
system.mem_ctrls.rdQLenPdf::30                      0                       # What read queue length does an incoming req see
system.mem_ctrls.rdQLenPdf::31                      0                       # What read queue length does an incoming req see
system.mem_ctrls.readBursts                    121219                       # Number of DRAM read bursts, including those serviced by the write queue
system.mem_ctrls.readPktSize::0                  1003                       # Read request sizes (log2)
system.mem_ctrls.readPktSize::1                   193                       # Read request sizes (log2)
system.mem_ctrls.readPktSize::2                  5696                       # Read request sizes (log2)
system.mem_ctrls.readPktSize::3                114327                       # Read request sizes (log2)
system.mem_ctrls.readPktSize::4                     0                       # Read request sizes (log2)
system.mem_ctrls.readPktSize::5                     0                       # Read request sizes (log2)
system.mem_ctrls.readPktSize::6                     0                       # Read request sizes (log2)
system.mem_ctrls.readReqs                      121219                       # Number of read requests accepted
system.mem_ctrls.readRowHitRate                 86.97                       # Row buffer hit rate for reads
system.mem_ctrls.readRowHits                   102717                       # Number of row buffer hits during reads
system.mem_ctrls.servicedByWrQ                   3112                       # Number of DRAM read bursts serviced by the write queue
system.mem_ctrls.totBusLat                  590535000                       # Total ticks spent in databus transfers
system.mem_ctrls.totGap                    7365496000                       # Total gap between requests
system.mem_ctrls.totMemAccLat              3449518750                       # Total ticks spent from burst creation until serviced by the DRAM
system.mem_ctrls.totQLat                   1235012500                       # Total ticks spent queuing
system.mem_ctrls.wrPerTurnAround::samples           57                       # Writes before turning the bus around for reads
system.mem_ctrls.wrPerTurnAround::mean      16.052632                       # Writes before turning the bus around for reads
system.mem_ctrls.wrPerTurnAround::gmean     16.048311                       # Writes before turning the bus around for reads
system.mem_ctrls.wrPerTurnAround::stdev      0.397360                       # Writes before turning the bus around for reads
system.mem_ctrls.wrPerTurnAround::16               56     98.25%     98.25% # Writes before turning the bus around for reads
system.mem_ctrls.wrPerTurnAround::19                1      1.75%    100.00% # Writes before turning the bus around for reads
system.mem_ctrls.wrPerTurnAround::total            57                       # Writes before turning the bus around for reads
system.mem_ctrls.wrQLenPdf::0                       0                       # What write queue length does an incoming req see
system.mem_ctrls.wrQLenPdf::1                       0                       # What write queue length does an incoming req see
system.mem_ctrls.wrQLenPdf::2                       0                       # What write queue length does an incoming req see
system.mem_ctrls.wrQLenPdf::3                       0                       # What write queue length does an incoming req see
system.mem_ctrls.wrQLenPdf::4                       0                       # What write queue length does an incoming req see
system.mem_ctrls.wrQLenPdf::5                       0                       # What write queue length does an incoming req see
system.mem_ctrls.wrQLenPdf::6                       0                       # What write queue length does an incoming req see
system.mem_ctrls.wrQLenPdf::7                       0                       # What write queue length does an incoming req see
system.mem_ctrls.wrQLenPdf::8                       0                       # What write queue length does an incoming req see
system.mem_ctrls.wrQLenPdf::9                       0                       # What write queue length does an incoming req see
system.mem_ctrls.wrQLenPdf::10                      0                       # What write queue length does an incoming req see
system.mem_ctrls.wrQLenPdf::11                      0                       # What write queue length does an incoming req see
system.mem_ctrls.wrQLenPdf::12                      0                       # What write queue length does an incoming req see
system.mem_ctrls.wrQLenPdf::13                      0                       # What write queue length does an incoming req see
system.mem_ctrls.wrQLenPdf::14                      0                       # What write queue length does an incoming req see
system.mem_ctrls.wrQLenPdf::15                      1                       # What write queue length does an incoming req see
system.mem_ctrls.wrQLenPdf::16                      2                       # What write queue length does an incoming req see
system.mem_ctrls.wrQLenPdf::17                     57                       # What write queue length does an incoming req see
system.mem_ctrls.wrQLenPdf::18                     57                       # What write queue length does an incoming req see
system.mem_ctrls.wrQLenPdf::19                     57                       # What write queue length does an incoming req see
system.mem_ctrls.wrQLenPdf::20                     56                       # What write queue length does an incoming req see
system.mem_ctrls.wrQLenPdf::21                     56                       # What write queue length does an incoming req see
system.mem_ctrls.wrQLenPdf::22                     56                       # What write queue length does an incoming req see
system.mem_ctrls.wrQLenPdf::23                     56                       # What write queue length does an incoming req see
system.mem_ctrls.wrQLenPdf::24                     56                       # What write queue length does an incoming req see
system.mem_ctrls.wrQLenPdf::25                     57                       # What write queue length does an incoming req see
system.mem_ctrls.wrQLenPdf::26                     57                       # What write queue length does an incoming req see
system.mem_ctrls.wrQLenPdf::27                     57                       # What write queue length does an incoming req see
system.mem_ctrls.wrQLenPdf::28                     57                       # What write queue length does an incoming req see
system.mem_ctrls.wrQLenPdf::29                     57                       # What write queue length does an incoming req see
system.mem_ctrls.wrQLenPdf::30                     57                       # What write queue length does an incoming req see
system.mem_ctrls.wrQLenPdf::31                     57                       # What write queue length does an incoming req see
system.mem_ctrls.wrQLenPdf::32                     57                       # What write queue length does an incoming req see
system.mem_ctrls.wrQLenPdf::33                      0                       # What write queue length does an incoming req see
system.mem_ctrls.wrQLenPdf::34                      0                       # What write queue length does an incoming req see
system.mem_ctrls.wrQLenPdf::35                      0                       # What write queue length does an incoming req see
system.mem_ctrls.wrQLenPdf::36                      0                       # What write queue length does an incoming req see
system.mem_ctrls.wrQLenPdf::37                      0                       # What write queue length does an incoming req see
system.mem_ctrls.wrQLenPdf::38                      0                       # What write queue length does an incoming req see
system.mem_ctrls.wrQLenPdf::39                      0                       # What write queue length does an incoming req see
system.mem_ctrls.wrQLenPdf::40                      0                       # What write queue length does an incoming req see
system.mem_ctrls.wrQLenPdf::41                      0                       # What write queue length does an incoming req see
system.mem_ctrls.wrQLenPdf::42                      0                       # What write queue length does an incoming req see
system.mem_ctrls.wrQLenPdf::43                      0                       # What write queue length does an incoming req see
system.mem_ctrls.wrQLenPdf::44                      0                       # What write queue length does an incoming req see
system.mem_ctrls.wrQLenPdf::45                      0                       # What write queue length does an incoming req see
system.mem_ctrls.wrQLenPdf::46                      0                       # What write queue length does an incoming req see
system.mem_ctrls.wrQLenPdf::47                      0                       # What write queue length does an incoming req see
system.mem_ctrls.wrQLenPdf::48                      0                       # What write queue length does an incoming req see
system.mem_ctrls.wrQLenPdf::49                      0                       # What write queue length does an incoming req see
system.mem_ctrls.wrQLenPdf::50                      0                       # What write queue length does an incoming req see
system.mem_ctrls.wrQLenPdf::51                      0                       # What write queue length does an incoming req see
system.mem_ctrls.wrQLenPdf::52                      0                       # What write queue length does an incoming req see
system.mem_ctrls.wrQLenPdf::53                      0                       # What write queue length does an incoming req see
system.mem_ctrls.wrQLenPdf::54                      0                       # What write queue length does an incoming req see
system.mem_ctrls.wrQLenPdf::55                      0                       # What write queue length does an incoming req see
system.mem_ctrls.wrQLenPdf::56                      0                       # What write queue length does an incoming req see
system.mem_ctrls.wrQLenPdf::57                      0                       # What write queue length does an incoming req see
system.mem_ctrls.wrQLenPdf::58                      0                       # What write queue length does an incoming req see
system.mem_ctrls.wrQLenPdf::59                      0                       # What write queue length does an incoming req see
system.mem_ctrls.wrQLenPdf::60                      0                       # What write queue length does an incoming req see
system.mem_ctrls.wrQLenPdf::61                      0                       # What write queue length does an incoming req see
system.mem_ctrls.wrQLenPdf::62                      0                       # What write queue length does an incoming req see
system.mem_ctrls.wrQLenPdf::63                      0                       # What write queue length does an incoming req see
system.mem_ctrls.writeBursts                    11916                       # Number of DRAM write bursts, including those merged in the write queue
system.mem_ctrls.writePktSize::0                  323                       # Write request sizes (log2)
system.mem_ctrls.writePktSize::1                  185                       # Write request sizes (log2)
system.mem_ctrls.writePktSize::2                 2391                       # Write request sizes (log2)
system.mem_ctrls.writePktSize::3                 9017                       # Write request sizes (log2)
system.mem_ctrls.writePktSize::4                    0                       # Write request sizes (log2)
system.mem_ctrls.writePktSize::5                    0                       # Write request sizes (log2)
system.mem_ctrls.writePktSize::6                    0                       # Write request sizes (log2)
system.mem_ctrls.writeReqs                      11916                       # Number of write requests accepted
system.mem_ctrls.writeRowHitRate                76.37                       # Row buffer hit rate for writes
system.mem_ctrls.writeRowHits                     695                       # Number of row buffer hits during writes
system.mem_ctrls_0.actBackEnergy           1333039050                       # Energy for active background per rank (pJ)
system.mem_ctrls_0.actEnergy                 86115540                       # Energy for activate commands per rank (pJ)
system.mem_ctrls_0.actPowerDownEnergy      1976424270                       # Energy for active power-down per rank (pJ)
system.mem_ctrls_0.averagePower            645.334791                       # Core power per rank (mW)
system.mem_ctrls_0.memoryStateTime::IDLE      5922000                       # Time in different power states
system.mem_ctrls_0.memoryStateTime::REF     245960000                       # Time in different power states
system.mem_ctrls_0.memoryStateTime::SREF        40750                       # Time in different power states
system.mem_ctrls_0.memoryStateTime::PRE_PDN     69658000                       # Time in different power states
system.mem_ctrls_0.memoryStateTime::ACT    2712050750                       # Time in different power states
system.mem_ctrls_0.memoryStateTime::ACT_PDN   4332039000                       # Time in different power states
system.mem_ctrls_0.preBackEnergy             15865920                       # Energy for precharge background per rank (pJ)
system.mem_ctrls_0.preEnergy                 45763905                       # Energy for precharge commands per rank (pJ)
system.mem_ctrls_0.prePowerDownEnergy        26752320                       # Energy for precharge power-down per rank (pJ)
system.mem_ctrls_0.readEnergy               682555440                       # Energy for read commands per rank (pJ)
system.mem_ctrls_0.refreshEnergy         581449440.000000                       # Energy for refresh commands per rank (pJ)
system.mem_ctrls_0.selfRefreshEnergy     1229280.000000                       # Energy for self refresh per rank (pJ)
system.mem_ctrls_0.totalEnergy             4753201785                       # Total energy per rank (pJ)
system.mem_ctrls_0.totalIdleTime           4401190500                       # Total Idle time Per DRAM Rank
system.mem_ctrls_0.writeEnergy                3789720                       # Energy for write commands per rank (pJ)
system.mem_ctrls_1.actBackEnergy            412860690                       # Energy for active background per rank (pJ)
system.mem_ctrls_1.actEnergy                 25511220                       # Energy for activate commands per rank (pJ)
system.mem_ctrls_1.actPowerDownEnergy      2136992130                       # Energy for active power-down per rank (pJ)
system.mem_ctrls_1.averagePower            543.914819                       # Core power per rank (mW)
system.mem_ctrls_1.memoryStateTime::IDLE     12210000                       # Time in different power states
system.mem_ctrls_1.memoryStateTime::REF     242580000                       # Time in different power states
system.mem_ctrls_1.memoryStateTime::SREF     94147750                       # Time in different power states
system.mem_ctrls_1.memoryStateTime::PRE_PDN   1640086750                       # Time in different power states
system.mem_ctrls_1.memoryStateTime::ACT     695092250                       # Time in different power states
system.mem_ctrls_1.memoryStateTime::ACT_PDN   4681395750                       # Time in different power states
system.mem_ctrls_1.preBackEnergy             17415360                       # Energy for precharge background per rank (pJ)
system.mem_ctrls_1.preEnergy                 13548150                       # Energy for precharge commands per rank (pJ)
system.mem_ctrls_1.prePowerDownEnergy       629825280                       # Energy for precharge power-down per rank (pJ)
system.mem_ctrls_1.readEnergy               161235480                       # Energy for read commands per rank (pJ)
system.mem_ctrls_1.refreshEnergy         573459120.000000                       # Energy for refresh commands per rank (pJ)
system.mem_ctrls_1.selfRefreshEnergy         34250640                       # Energy for self refresh per rank (pJ)
system.mem_ctrls_1.totalEnergy             4006194810                       # Total energy per rank (pJ)
system.mem_ctrls_1.totalIdleTime           6415600000                       # Total Idle time Per DRAM Rank
system.mem_ctrls_1.writeEnergy                 986580                       # Energy for write commands per rank (pJ)
system.membus.badaddr_responder.pwrStateResidencyTicks::UNDEFINED 353561837950000                       # Cumulative time (in ticks) in various power states
system.membus.pkt_count_system.apicbridge.master::system.cpu.interrupts.int_slave           58                       # Packet count per connected master and slave (bytes)
system.membus.pkt_count_system.apicbridge.master::total           58                       # Packet count per connected master and slave (bytes)
system.membus.pkt_count_system.cpu.icache_port::system.mem_ctrls.port       200986                       # Packet count per connected master and slave (bytes)
system.membus.pkt_count_system.cpu.icache_port::total       200986                       # Packet count per connected master and slave (bytes)
system.membus.pkt_count_system.cpu.dcache_port::system.bridge.slave          232                       # Packet count per connected master and slave (bytes)
system.membus.pkt_count_system.cpu.dcache_port::system.cpu.interrupts.pio           20                       # Packet count per connected master and slave (bytes)
system.membus.pkt_count_system.cpu.dcache_port::system.mem_ctrls.port        64854                       # Packet count per connected master and slave (bytes)
system.membus.pkt_count_system.cpu.dcache_port::total        65106                       # Packet count per connected master and slave (bytes)
system.membus.pkt_count_system.cpu.itb.walker.port::system.mem_ctrls.port          240                       # Packet count per connected master and slave (bytes)
system.membus.pkt_count_system.cpu.itb.walker.port::total          240                       # Packet count per connected master and slave (bytes)
system.membus.pkt_count_system.cpu.dtb.walker.port::system.mem_ctrls.port          190                       # Packet count per connected master and slave (bytes)
system.membus.pkt_count_system.cpu.dtb.walker.port::total          190                       # Packet count per connected master and slave (bytes)
system.membus.pkt_count::total                 266580                       # Packet count per connected master and slave (bytes)
system.membus.pkt_size_system.apicbridge.master::system.cpu.interrupts.int_slave          116                       # Cumulative packet size per connected master and slave (bytes)
system.membus.pkt_size_system.apicbridge.master::total          116                       # Cumulative packet size per connected master and slave (bytes)
system.membus.pkt_size_system.cpu.icache_port::system.mem_ctrls.port       803944                       # Cumulative packet size per connected master and slave (bytes)
system.membus.pkt_size_system.cpu.icache_port::total       803944                       # Cumulative packet size per connected master and slave (bytes)
system.membus.pkt_size_system.cpu.dcache_port::system.bridge.slave          116                       # Cumulative packet size per connected master and slave (bytes)
system.membus.pkt_size_system.cpu.dcache_port::system.cpu.interrupts.pio           40                       # Cumulative packet size per connected master and slave (bytes)
system.membus.pkt_size_system.cpu.dcache_port::system.mem_ctrls.port       215511                       # Cumulative packet size per connected master and slave (bytes)
system.membus.pkt_size_system.cpu.dcache_port::total       215667                       # Cumulative packet size per connected master and slave (bytes)
system.membus.pkt_size_system.cpu.itb.walker.port::system.mem_ctrls.port          960                       # Cumulative packet size per connected master and slave (bytes)
system.membus.pkt_size_system.cpu.itb.walker.port::total          960                       # Cumulative packet size per connected master and slave (bytes)
system.membus.pkt_size_system.cpu.dtb.walker.port::system.mem_ctrls.port          760                       # Cumulative packet size per connected master and slave (bytes)
system.membus.pkt_size_system.cpu.dtb.walker.port::total          760                       # Cumulative packet size per connected master and slave (bytes)
system.membus.pkt_size::total                 1021447                       # Cumulative packet size per connected master and slave (bytes)
system.membus.pwrStateResidencyTicks::UNDEFINED 353561837950000                       # Cumulative time (in ticks) in various power states
system.membus.reqLayer0.occupancy              149000                       # Layer occupancy (ticks)
system.membus.reqLayer0.utilization               0.0                       # Layer utilization (%)
system.membus.reqLayer2.occupancy               20000                       # Layer occupancy (ticks)
system.membus.reqLayer2.utilization               0.0                       # Layer utilization (%)
system.membus.reqLayer3.occupancy               58000                       # Layer occupancy (ticks)
system.membus.reqLayer3.utilization               0.0                       # Layer utilization (%)
system.membus.reqLayer4.occupancy           145051500                       # Layer occupancy (ticks)
system.membus.reqLayer4.utilization               2.0                       # Layer utilization (%)
system.membus.respLayer0.occupancy              29000                       # Layer occupancy (ticks)
system.membus.respLayer0.utilization              0.0                       # Layer utilization (%)
system.membus.respLayer3.occupancy          228882000                       # Layer occupancy (ticks)
system.membus.respLayer3.utilization              3.1                       # Layer utilization (%)
system.membus.respLayer4.occupancy           59531000                       # Layer occupancy (ticks)
system.membus.respLayer4.utilization              0.8                       # Layer utilization (%)
system.membus.respLayer5.occupancy             293500                       # Layer occupancy (ticks)
system.membus.respLayer5.utilization              0.0                       # Layer utilization (%)
system.membus.respLayer6.occupancy             238750                       # Layer occupancy (ticks)
system.membus.respLayer6.utilization              0.0                       # Layer utilization (%)
system.membus.snoopTraffic                          0                       # Total snoop traffic (bytes)
system.membus.snoop_fanout::samples            133290                       # Request fanout histogram
system.membus.snoop_fanout::mean                    0                       # Request fanout histogram
system.membus.snoop_fanout::stdev                   0                       # Request fanout histogram
system.membus.snoop_fanout::underflows              0      0.00%      0.00% # Request fanout histogram
system.membus.snoop_fanout::0                  133290    100.00%    100.00% # Request fanout histogram
system.membus.snoop_fanout::1                       0      0.00%    100.00% # Request fanout histogram
system.membus.snoop_fanout::overflows               0      0.00%    100.00% # Request fanout histogram
system.membus.snoop_fanout::min_value               0                       # Request fanout histogram
system.membus.snoop_fanout::max_value               0                       # Request fanout histogram
system.membus.snoop_fanout::total              133290                       # Request fanout histogram
system.membus.snoop_filter.hit_multi_requests            0                       # Number of requests hitting in the snoop filter with multiple (>1) holders of the requested data.
system.membus.snoop_filter.hit_multi_snoops            0                       # Number of snoops hitting in the snoop filter with multiple (>1) holders of the requested data.
system.membus.snoop_filter.hit_single_requests            0                       # Number of requests hitting in the snoop filter with a single holder of the requested data.
system.membus.snoop_filter.hit_single_snoops            0                       # Number of snoops hitting in the snoop filter with a single holder of the requested data.
system.membus.snoop_filter.tot_requests             0                       # Total number of requests made to the snoop filter.
system.membus.snoop_filter.tot_snoops               0                       # Total number of snoops made to the snoop filter.
system.membus.snoops                                0                       # Total snoops (count)
system.membus.trans_dist::ReadReq              121281                       # Transaction distribution
system.membus.trans_dist::ReadResp             121281                       # Transaction distribution
system.membus.trans_dist::WriteReq              11959                       # Transaction distribution
system.membus.trans_dist::WriteResp             11959                       # Transaction distribution
system.membus.trans_dist::SoftPFReq                21                       # Transaction distribution
system.membus.trans_dist::SoftPFResp               21                       # Transaction distribution
system.membus.trans_dist::MessageReq               29                       # Transaction distribution
system.membus.trans_dist::MessageResp              29                       # Transaction distribution
system.mmiofu.pwrStateResidencyTicks::UNDEFINED 353561837950000                       # Cumulative time (in ticks) in various power states
system.mmiofu_bridge.pwrStateResidencyTicks::UNDEFINED 353561837950000                       # Cumulative time (in ticks) in various power states
system.pc.behind_pci.pwrStateResidencyTicks::UNDEFINED 353561837950000                       # Cumulative time (in ticks) in various power states
system.pc.com_1.pwrStateResidencyTicks::UNDEFINED 353561837950000                       # Cumulative time (in ticks) in various power states
system.pc.fake_com_2.pwrStateResidencyTicks::UNDEFINED 353561837950000                       # Cumulative time (in ticks) in various power states
system.pc.fake_com_3.pwrStateResidencyTicks::UNDEFINED 353561837950000                       # Cumulative time (in ticks) in various power states
system.pc.fake_com_4.pwrStateResidencyTicks::UNDEFINED 353561837950000                       # Cumulative time (in ticks) in various power states
system.pc.fake_floppy.pwrStateResidencyTicks::UNDEFINED 353561837950000                       # Cumulative time (in ticks) in various power states
system.pc.i_dont_exist1.pwrStateResidencyTicks::UNDEFINED 353561837950000                       # Cumulative time (in ticks) in various power states
system.pc.i_dont_exist2.pwrStateResidencyTicks::UNDEFINED 353561837950000                       # Cumulative time (in ticks) in various power states
system.pc.pci_host.pwrStateResidencyTicks::UNDEFINED 353561837950000                       # Cumulative time (in ticks) in various power states
system.pc.south_bridge.cmos.pwrStateResidencyTicks::UNDEFINED 353561837950000                       # Cumulative time (in ticks) in various power states
system.pc.south_bridge.dma1.pwrStateResidencyTicks::UNDEFINED 353561837950000                       # Cumulative time (in ticks) in various power states
system.pc.south_bridge.ide.disks0.dma_read_bytes            0                       # Number of bytes transfered via DMA reads (not PRD).
system.pc.south_bridge.ide.disks0.dma_read_full_pages            0                       # Number of full page size DMA reads (not PRD).
system.pc.south_bridge.ide.disks0.dma_read_txs            0                       # Number of DMA read transactions (not PRD).
system.pc.south_bridge.ide.disks0.dma_write_bytes            0                       # Number of bytes transfered via DMA writes.
system.pc.south_bridge.ide.disks0.dma_write_full_pages            0                       # Number of full page size DMA writes.
system.pc.south_bridge.ide.disks0.dma_write_txs            0                       # Number of DMA write transactions.
system.pc.south_bridge.ide.disks1.dma_read_bytes            0                       # Number of bytes transfered via DMA reads (not PRD).
system.pc.south_bridge.ide.disks1.dma_read_full_pages            0                       # Number of full page size DMA reads (not PRD).
system.pc.south_bridge.ide.disks1.dma_read_txs            0                       # Number of DMA read transactions (not PRD).
system.pc.south_bridge.ide.disks1.dma_write_bytes            0                       # Number of bytes transfered via DMA writes.
system.pc.south_bridge.ide.disks1.dma_write_full_pages            0                       # Number of full page size DMA writes.
system.pc.south_bridge.ide.disks1.dma_write_txs            0                       # Number of DMA write transactions.
system.pc.south_bridge.ide.pwrStateResidencyTicks::UNDEFINED 353561837950000                       # Cumulative time (in ticks) in various power states
system.pc.south_bridge.io_apic.pwrStateResidencyTicks::UNDEFINED 353561837950000                       # Cumulative time (in ticks) in various power states
system.pc.south_bridge.keyboard.pwrStateResidencyTicks::UNDEFINED 353561837950000                       # Cumulative time (in ticks) in various power states
system.pc.south_bridge.pic1.pwrStateResidencyTicks::UNDEFINED 353561837950000                       # Cumulative time (in ticks) in various power states
system.pc.south_bridge.pic2.pwrStateResidencyTicks::UNDEFINED 353561837950000                       # Cumulative time (in ticks) in various power states
system.pc.south_bridge.pit.pwrStateResidencyTicks::UNDEFINED 353561837950000                       # Cumulative time (in ticks) in various power states
system.pc.south_bridge.speaker.pwrStateResidencyTicks::UNDEFINED 353561837950000                       # Cumulative time (in ticks) in various power states
system.pwrStateResidencyTicks::UNDEFINED 353561837950000                       # Cumulative time (in ticks) in various power states
system.switch_cpus.Branches                     17933                       # Number of branches fetched
system.switch_cpus.committedInsts               76959                       # Number of instructions committed
system.switch_cpus.committedOps                154244                       # Number of ops (including micro ops) committed
system.switch_cpus.dtb.pwrStateResidencyTicks::UNDEFINED 353561837950000                       # Cumulative time (in ticks) in various power states
system.switch_cpus.dtb.rdAccesses               20534                       # TLB accesses on read requests
system.switch_cpus.dtb.rdMisses                    22                       # TLB misses on read requests
system.switch_cpus.dtb.walker.pwrStateResidencyTicks::UNDEFINED 353561837950000                       # Cumulative time (in ticks) in various power states
system.switch_cpus.dtb.wrAccesses               11928                       # TLB accesses on write requests
system.switch_cpus.dtb.wrMisses                     2                       # TLB misses on write requests
system.switch_cpus.idle_fraction                    0                       # Percentage of idle cycles
system.switch_cpus.itb.pwrStateResidencyTicks::UNDEFINED 353561837950000                       # Cumulative time (in ticks) in various power states
system.switch_cpus.itb.rdAccesses                   0                       # TLB accesses on read requests
system.switch_cpus.itb.rdMisses                     0                       # TLB misses on read requests
system.switch_cpus.itb.walker.pwrStateResidencyTicks::UNDEFINED 353561837950000                       # Cumulative time (in ticks) in various power states
system.switch_cpus.itb.wrAccesses              100523                       # TLB accesses on write requests
system.switch_cpus.itb.wrMisses                    30                       # TLB misses on write requests
system.switch_cpus.kern.inst.arm                    0                       # number of arm instructions executed
system.switch_cpus.kern.inst.quiesce                0                       # number of quiesce instructions executed
system.switch_cpus.not_idle_fraction                1                       # Percentage of non-idle cycles
system.switch_cpus.numCycles                 14731418                       # number of cpu cycles simulated
system.switch_cpus.numWorkItemsCompleted            0                       # number of work items this cpu completed
system.switch_cpus.numWorkItemsStarted              0                       # number of work items this cpu started
system.switch_cpus.num_busy_cycles           14731418                       # Number of busy cycles
system.switch_cpus.num_cc_register_reads        75608                       # number of times the CC registers were read
system.switch_cpus.num_cc_register_writes        46944                       # number of times the CC registers were written
system.switch_cpus.num_conditional_control_insts        10953                       # number of instructions that are conditional controls
system.switch_cpus.num_fp_alu_accesses           8835                       # Number of float alu accesses
system.switch_cpus.num_fp_insts                  8835                       # number of float instructions
system.switch_cpus.num_fp_register_reads        13416                       # number of times the floating registers were read
system.switch_cpus.num_fp_register_writes         7703                       # number of times the floating registers were written
system.switch_cpus.num_func_calls                4970                       # number of times a function call or return occured
system.switch_cpus.num_idle_cycles                  0                       # Number of idle cycles
system.switch_cpus.num_int_alu_accesses        146631                       # Number of integer alu accesses
system.switch_cpus.num_int_insts               146631                       # number of integer instructions
system.switch_cpus.num_int_register_reads       284494                       # number of times the integer registers were read
system.switch_cpus.num_int_register_writes       119795                       # number of times the integer registers were written
system.switch_cpus.num_load_insts               20595                       # Number of load instructions
system.switch_cpus.num_mem_refs                 32554                       # number of memory refs
system.switch_cpus.num_store_insts              11959                       # Number of store instructions
system.switch_cpus.num_vec_alu_accesses             0                       # Number of vector alu accesses
system.switch_cpus.num_vec_insts                    0                       # number of vector instructions
system.switch_cpus.num_vec_register_reads            0                       # number of times the vector registers were read
system.switch_cpus.num_vec_register_writes            0                       # number of times the vector registers were written
system.switch_cpus.op_class::No_OpClass           882      0.57%      0.57% # Class of executed instruction
system.switch_cpus.op_class::IntAlu            115326     74.77%     75.34% # Class of executed instruction
system.switch_cpus.op_class::IntMult               68      0.04%     75.38% # Class of executed instruction
system.switch_cpus.op_class::IntDiv                28      0.02%     75.40% # Class of executed instruction
system.switch_cpus.op_class::FloatAdd            1604      1.04%     76.44% # Class of executed instruction
system.switch_cpus.op_class::FloatCmp               0      0.00%     76.44% # Class of executed instruction
system.switch_cpus.op_class::FloatCvt               0      0.00%     76.44% # Class of executed instruction
system.switch_cpus.op_class::FloatMult            200      0.13%     76.57% # Class of executed instruction
system.switch_cpus.op_class::FloatMultAcc            0      0.00%     76.57% # Class of executed instruction
system.switch_cpus.op_class::FloatDiv               0      0.00%     76.57% # Class of executed instruction
system.switch_cpus.op_class::FloatMisc              0      0.00%     76.57% # Class of executed instruction
system.switch_cpus.op_class::FloatSqrt            200      0.13%     76.70% # Class of executed instruction
system.switch_cpus.op_class::SimdAdd                0      0.00%     76.70% # Class of executed instruction
system.switch_cpus.op_class::SimdAddAcc             0      0.00%     76.70% # Class of executed instruction
system.switch_cpus.op_class::SimdAlu             1226      0.79%     77.49% # Class of executed instruction
system.switch_cpus.op_class::SimdCmp                0      0.00%     77.49% # Class of executed instruction
system.switch_cpus.op_class::SimdCvt               18      0.01%     77.51% # Class of executed instruction
system.switch_cpus.op_class::SimdMisc             441      0.29%     77.79% # Class of executed instruction
system.switch_cpus.op_class::SimdMult               0      0.00%     77.79% # Class of executed instruction
system.switch_cpus.op_class::SimdMultAcc            0      0.00%     77.79% # Class of executed instruction
system.switch_cpus.op_class::SimdShift              0      0.00%     77.79% # Class of executed instruction
system.switch_cpus.op_class::SimdShiftAcc            0      0.00%     77.79% # Class of executed instruction
system.switch_cpus.op_class::SimdSqrt               0      0.00%     77.79% # Class of executed instruction
system.switch_cpus.op_class::SimdFloatAdd          900      0.58%     78.38% # Class of executed instruction
system.switch_cpus.op_class::SimdFloatAlu            0      0.00%     78.38% # Class of executed instruction
system.switch_cpus.op_class::SimdFloatCmp            0      0.00%     78.38% # Class of executed instruction
system.switch_cpus.op_class::SimdFloatCvt          302      0.20%     78.57% # Class of executed instruction
system.switch_cpus.op_class::SimdFloatDiv          300      0.19%     78.77% # Class of executed instruction
system.switch_cpus.op_class::SimdFloatMisc            0      0.00%     78.77% # Class of executed instruction
system.switch_cpus.op_class::SimdFloatMult          200      0.13%     78.90% # Class of executed instruction
system.switch_cpus.op_class::SimdFloatMultAcc            0      0.00%     78.90% # Class of executed instruction
system.switch_cpus.op_class::SimdFloatSqrt            0      0.00%     78.90% # Class of executed instruction
system.switch_cpus.op_class::SimdAes                0      0.00%     78.90% # Class of executed instruction
system.switch_cpus.op_class::SimdAesMix             0      0.00%     78.90% # Class of executed instruction
system.switch_cpus.op_class::SimdSha1Hash            0      0.00%     78.90% # Class of executed instruction
system.switch_cpus.op_class::SimdSha1Hash2            0      0.00%     78.90% # Class of executed instruction
system.switch_cpus.op_class::SimdSha256Hash            0      0.00%     78.90% # Class of executed instruction
system.switch_cpus.op_class::SimdSha256Hash2            0      0.00%     78.90% # Class of executed instruction
system.switch_cpus.op_class::SimdShaSigma2            0      0.00%     78.90% # Class of executed instruction
system.switch_cpus.op_class::SimdShaSigma3            0      0.00%     78.90% # Class of executed instruction
system.switch_cpus.op_class::MemRead            19280     12.50%     91.39% # Class of executed instruction
system.switch_cpus.op_class::MemWrite           11142      7.22%     98.62% # Class of executed instruction
system.switch_cpus.op_class::FloatMemRead         1315      0.85%     99.47% # Class of executed instruction
system.switch_cpus.op_class::FloatMemWrite          817      0.53%    100.00% # Class of executed instruction
system.switch_cpus.op_class::IprAccess              0      0.00%    100.00% # Class of executed instruction
system.switch_cpus.op_class::InstPrefetch            0      0.00%    100.00% # Class of executed instruction
system.switch_cpus.op_class::total             154249                       # Class of executed instruction
system.switch_cpus.pwrStateResidencyTicks::ON 7647427886000                       # Cumulative time (in ticks) in various power states
system.voltage_domain.voltage                       1                       # Voltage in Volts

---------- End Simulation Statistics   ----------

---------- Begin Simulation Statistics ----------
final_tick                               353570133835000                       # Number of ticks from beginning of simulation (restored from checkpoints and never reset)
host_inst_rate                              173916073                       # Simulator instruction rate (inst/s)
host_mem_usage                                 994260                       # Number of bytes of host memory used
host_op_rate                                319423487                       # Simulator op (including micro ops) rate (op/s)
host_seconds                                     0.45                       # Real time elapsed on the host
host_tick_rate                            18418241148                       # Simulator tick rate (ticks/s)
sim_freq                                 1000000000000                       # Frequency of simulated ticks
sim_insts                                    78322516                       # Number of instructions simulated
sim_ops                                     143868974                       # Number of ops (including micro ops) simulated
sim_seconds                                  0.008296                       # Number of seconds simulated
sim_ticks                                  8295885000                       # Number of ticks simulated
system.apicbridge.pwrStateResidencyTicks::UNDEFINED   8295885000                       # Cumulative time (in ticks) in various power states
system.bridge.pwrStateResidencyTicks::UNDEFINED   8295885000                       # Cumulative time (in ticks) in various power states
system.clk_domain.clock                          1000                       # Clock period in ticks
system.cpu.apic_clk_domain.clock                 8000                       # Clock period in ticks
system.cpu.committedInsts                           0                       # Number of instructions committed
system.cpu.committedOps                             0                       # Number of ops (including micro ops) committed
[...]
system.membus.pkt_count_system.cpu.dtb.walker.port::total            8                       # Packet count per connected master and slave (bytes)
system.membus.pkt_count::total                     82                       # Packet count per connected master and slave (bytes)
system.membus.pkt_size_system.cpu.icache_port::system.mem_ctrls.port          224                       # Cumulative packet size per connected master and slave (bytes)
system.membus.pkt_size_system.cpu.icache_port::total          224                       # Cumulative packet size per connected master and slave (bytes)
system.membus.pkt_size_system.cpu.dcache_port::system.mem_ctrls.port           64                       # Cumulative packet size per connected master and slave (bytes)
system.membus.pkt_size_system.cpu.dcache_port::total           64                       # Cumulative packet size per connected master and slave (bytes)
system.membus.pkt_size_system.cpu.dtb.walker.port::system.mem_ctrls.port           32                       # Cumulative packet size per connected master and slave (bytes)
system.membus.pkt_size_system.cpu.dtb.walker.port::total           32                       # Cumulative packet size per connected master and slave (bytes)
system.membus.pkt_size::total                     320                       # Cumulative packet size per connected master and slave (bytes)
system.membus.pwrStateResidencyTicks::UNDEFINED      2260000                       # Cumulative time (in ticks) in various power states
system.membus.reqLayer4.occupancy               43500                       # Layer occupancy (ticks)
system.membus.reqLayer4.utilization               1.9                       # Layer utilization (%)
system.membus.respLayer3.occupancy              63750                       # Layer occupancy (ticks)
system.membus.respLayer3.utilization              2.8                       # Layer utilization (%)
system.membus.respLayer4.occupancy              17750                       # Layer occupancy (ticks)
system.membus.respLayer4.utilization              0.8                       # Layer utilization (%)
system.membus.respLayer6.occupancy              10500                       # Layer occupancy (ticks)
system.membus.respLayer6.utilization              0.5                       # Layer utilization (%)
system.membus.snoopTraffic                          0                       # Total snoop traffic (bytes)
system.membus.snoop_fanout::samples                41                       # Request fanout histogram
system.membus.snoop_fanout::mean                    0                       # Request fanout histogram
system.membus.snoop_fanout::stdev                   0                       # Request fanout histogram
system.membus.snoop_fanout::underflows              0      0.00%      0.00% # Request fanout histogram
system.membus.snoop_fanout::0                      41    100.00%    100.00% # Request fanout histogram
system.membus.snoop_fanout::1                       0      0.00%    100.00% # Request fanout histogram
system.membus.snoop_fanout::overflows               0      0.00%    100.00% # Request fanout histogram
system.membus.snoop_fanout::min_value               0                       # Request fanout histogram
system.membus.snoop_fanout::max_value               0                       # Request fanout histogram
system.membus.snoop_fanout::total                  41                       # Request fanout histogram
system.membus.snoop_filter.hit_multi_requests            0                       # Number of requests hitting in the snoop filter with multiple (>1) holders of the requested data.
system.membus.snoop_filter.hit_multi_snoops            0                       # Number of snoops hitting in the snoop filter with multiple (>1) holders of the requested data.
system.membus.snoop_filter.hit_single_requests            0                       # Number of requests hitting in the snoop filter with a single holder of the requested data.
system.membus.snoop_filter.hit_single_snoops            0                       # Number of snoops hitting in the snoop filter with a single holder of the requested data.
system.membus.snoop_filter.tot_requests             0                       # Total number of requests made to the snoop filter.
system.membus.snoop_filter.tot_snoops               0                       # Total number of snoops made to the snoop filter.
system.membus.snoops                                0                       # Total snoops (count)
system.membus.trans_dist::ReadReq                  39                       # Transaction distribution
system.membus.trans_dist::ReadResp                 39                       # Transaction distribution
system.membus.trans_dist::WriteReq                  2                       # Transaction distribution
system.membus.trans_dist::WriteResp                 2                       # Transaction distribution
system.mmiofu.pwrStateResidencyTicks::UNDEFINED      2260000                       # Cumulative time (in ticks) in various power states
system.mmiofu_bridge.pwrStateResidencyTicks::UNDEFINED      2260000                       # Cumulative time (in ticks) in various power states
system.pc.behind_pci.pwrStateResidencyTicks::UNDEFINED      2260000                       # Cumulative time (in ticks) in various power states
system.pc.com_1.pwrStateResidencyTicks::UNDEFINED      2260000                       # Cumulative time (in ticks) in various power states
system.pc.fake_com_2.pwrStateResidencyTicks::UNDEFINED      2260000                       # Cumulative time (in ticks) in various power states
system.pc.fake_com_3.pwrStateResidencyTicks::UNDEFINED      2260000                       # Cumulative time (in ticks) in various power states
system.pc.fake_com_4.pwrStateResidencyTicks::UNDEFINED      2260000                       # Cumulative time (in ticks) in various power states
system.pc.fake_floppy.pwrStateResidencyTicks::UNDEFINED      2260000                       # Cumulative time (in ticks) in various power states
system.pc.i_dont_exist1.pwrStateResidencyTicks::UNDEFINED      2260000                       # Cumulative time (in ticks) in various power states
system.pc.i_dont_exist2.pwrStateResidencyTicks::UNDEFINED      2260000                       # Cumulative time (in ticks) in various power states
system.pc.pci_host.pwrStateResidencyTicks::UNDEFINED      2260000                       # Cumulative time (in ticks) in various power states
system.pc.south_bridge.cmos.pwrStateResidencyTicks::UNDEFINED      2260000                       # Cumulative time (in ticks) in various power states
system.pc.south_bridge.dma1.pwrStateResidencyTicks::UNDEFINED      2260000                       # Cumulative time (in ticks) in various power states
system.pc.south_bridge.ide.disks0.dma_read_bytes            0                       # Number of bytes transfered via DMA reads (not PRD).
system.pc.south_bridge.ide.disks0.dma_read_full_pages            0                       # Number of full page size DMA reads (not PRD).
system.pc.south_bridge.ide.disks0.dma_read_txs            0                       # Number of DMA read transactions (not PRD).
system.pc.south_bridge.ide.disks0.dma_write_bytes            0                       # Number of bytes transfered via DMA writes.
system.pc.south_bridge.ide.disks0.dma_write_full_pages            0                       # Number of full page size DMA writes.
system.pc.south_bridge.ide.disks0.dma_write_txs            0                       # Number of DMA write transactions.
system.pc.south_bridge.ide.disks1.dma_read_bytes            0                       # Number of bytes transfered via DMA reads (not PRD).
system.pc.south_bridge.ide.disks1.dma_read_full_pages            0                       # Number of full page size DMA reads (not PRD).
system.pc.south_bridge.ide.disks1.dma_read_txs            0                       # Number of DMA read transactions (not PRD).
system.pc.south_bridge.ide.disks1.dma_write_bytes            0                       # Number of bytes transfered via DMA writes.
system.pc.south_bridge.ide.disks1.dma_write_full_pages            0                       # Number of full page size DMA writes.
system.pc.south_bridge.ide.disks1.dma_write_txs            0                       # Number of DMA write transactions.
system.pc.south_bridge.ide.pwrStateResidencyTicks::UNDEFINED      2260000                       # Cumulative time (in ticks) in various power states
system.pc.south_bridge.io_apic.pwrStateResidencyTicks::UNDEFINED      2260000                       # Cumulative time (in ticks) in various power states
system.pc.south_bridge.keyboard.pwrStateResidencyTicks::UNDEFINED      2260000                       # Cumulative time (in ticks) in various power states
system.pc.south_bridge.pic1.pwrStateResidencyTicks::UNDEFINED      2260000                       # Cumulative time (in ticks) in various power states
system.pc.south_bridge.pic2.pwrStateResidencyTicks::UNDEFINED      2260000                       # Cumulative time (in ticks) in various power states
system.pc.south_bridge.pit.pwrStateResidencyTicks::UNDEFINED      2260000                       # Cumulative time (in ticks) in various power states
system.pc.south_bridge.speaker.pwrStateResidencyTicks::UNDEFINED      2260000                       # Cumulative time (in ticks) in various power states
system.pwrStateResidencyTicks::UNDEFINED      2260000                       # Cumulative time (in ticks) in various power states
system.switch_cpus.Branches                         4                       # Number of branches fetched
system.switch_cpus.committedInsts                  20                       # Number of instructions committed
system.switch_cpus.committedOps                    36                       # Number of ops (including micro ops) committed
system.switch_cpus.dtb.pwrStateResidencyTicks::UNDEFINED      2260000                       # Cumulative time (in ticks) in various power states
system.switch_cpus.dtb.rdAccesses                   9                       # TLB accesses on read requests
system.switch_cpus.dtb.rdMisses                     1                       # TLB misses on read requests
system.switch_cpus.dtb.walker.pwrStateResidencyTicks::UNDEFINED      2260000                       # Cumulative time (in ticks) in various power states
system.switch_cpus.dtb.wrAccesses                   2                       # TLB accesses on write requests
system.switch_cpus.dtb.wrMisses                     0                       # TLB misses on write requests
system.switch_cpus.idle_fraction                    0                       # Percentage of idle cycles
system.switch_cpus.itb.pwrStateResidencyTicks::UNDEFINED      2260000                       # Cumulative time (in ticks) in various power states
system.switch_cpus.itb.rdAccesses                   0                       # TLB accesses on read requests
system.switch_cpus.itb.rdMisses                     0                       # TLB misses on read requests
system.switch_cpus.itb.walker.pwrStateResidencyTicks::UNDEFINED      2260000                       # Cumulative time (in ticks) in various power states
system.switch_cpus.itb.wrAccesses                  28                       # TLB accesses on write requests
system.switch_cpus.itb.wrMisses                     0                       # TLB misses on write requests
system.switch_cpus.kern.inst.arm                    0                       # number of arm instructions executed
system.switch_cpus.kern.inst.quiesce                0                       # number of quiesce instructions executed
system.switch_cpus.not_idle_fraction                1                       # Percentage of non-idle cycles
system.switch_cpus.numCycles                     3912                       # number of cpu cycles simulated
system.switch_cpus.numWorkItemsCompleted            0                       # number of work items this cpu completed
system.switch_cpus.numWorkItemsStarted              0                       # number of work items this cpu started
system.switch_cpus.num_busy_cycles               3912                       # Number of busy cycles
system.switch_cpus.num_cc_register_reads            7                       # number of times the CC registers were read
system.switch_cpus.num_cc_register_writes            6                       # number of times the CC registers were written
system.switch_cpus.num_conditional_control_insts            1                       # number of instructions that are conditional controls
system.switch_cpus.num_fp_alu_accesses              8                       # Number of float alu accesses
system.switch_cpus.num_fp_insts                     8                       # number of float instructions
system.switch_cpus.num_fp_register_reads           11                       # number of times the floating registers were read
system.switch_cpus.num_fp_register_writes            7                       # number of times the floating registers were written
system.switch_cpus.num_func_calls                   2                       # number of times a function call or return occured
system.switch_cpus.num_idle_cycles                  0                       # Number of idle cycles
system.switch_cpus.num_int_alu_accesses            32                       # Number of integer alu accesses
system.switch_cpus.num_int_insts                   32                       # number of integer instructions
system.switch_cpus.num_int_register_reads           63                       # number of times the integer registers were read
system.switch_cpus.num_int_register_writes           23                       # number of times the integer registers were written
system.switch_cpus.num_load_insts                   8                       # Number of load instructions
system.switch_cpus.num_mem_refs                    10                       # number of memory refs
system.switch_cpus.num_store_insts                  2                       # Number of store instructions
system.switch_cpus.num_vec_alu_accesses             0                       # Number of vector alu accesses
system.switch_cpus.num_vec_insts                    0                       # number of vector instructions
system.switch_cpus.num_vec_register_reads            0                       # number of times the vector registers were read
system.switch_cpus.num_vec_register_writes            0                       # number of times the vector registers were written
system.switch_cpus.op_class::No_OpClass             0      0.00%      0.00% # Class of executed instruction
system.switch_cpus.op_class::IntAlu                21     58.33%     58.33% # Class of executed instruction
system.switch_cpus.op_class::IntMult                0      0.00%     58.33% # Class of executed instruction
system.switch_cpus.op_class::IntDiv                 0      0.00%     58.33% # Class of executed instruction
system.switch_cpus.op_class::FloatAdd               0      0.00%     58.33% # Class of executed instruction
system.switch_cpus.op_class::FloatCmp               0      0.00%     58.33% # Class of executed instruction
system.switch_cpus.op_class::FloatCvt               0      0.00%     58.33% # Class of executed instruction
system.switch_cpus.op_class::FloatMult              0      0.00%     58.33% # Class of executed instruction
system.switch_cpus.op_class::FloatMultAcc            0      0.00%     58.33% # Class of executed instruction
system.switch_cpus.op_class::FloatDiv               0      0.00%     58.33% # Class of executed instruction
system.switch_cpus.op_class::FloatMisc              0      0.00%     58.33% # Class of executed instruction
system.switch_cpus.op_class::FloatSqrt              0      0.00%     58.33% # Class of executed instruction
system.switch_cpus.op_class::SimdAdd                0      0.00%     58.33% # Class of executed instruction
system.switch_cpus.op_class::SimdAddAcc             0      0.00%     58.33% # Class of executed instruction
system.switch_cpus.op_class::SimdAlu                0      0.00%     58.33% # Class of executed instruction
system.switch_cpus.op_class::SimdCmp                0      0.00%     58.33% # Class of executed instruction
system.switch_cpus.op_class::SimdCvt                0      0.00%     58.33% # Class of executed instruction
system.switch_cpus.op_class::SimdMisc               1      2.78%     61.11% # Class of executed instruction
system.switch_cpus.op_class::SimdMult               0      0.00%     61.11% # Class of executed instruction
system.switch_cpus.op_class::SimdMultAcc            0      0.00%     61.11% # Class of executed instruction
system.switch_cpus.op_class::SimdShift              0      0.00%     61.11% # Class of executed instruction
system.switch_cpus.op_class::SimdShiftAcc            0      0.00%     61.11% # Class of executed instruction
system.switch_cpus.op_class::SimdSqrt               0      0.00%     61.11% # Class of executed instruction
system.switch_cpus.op_class::SimdFloatAdd            1      2.78%     63.89% # Class of executed instruction
system.switch_cpus.op_class::SimdFloatAlu            0      0.00%     63.89% # Class of executed instruction
system.switch_cpus.op_class::SimdFloatCmp            0      0.00%     63.89% # Class of executed instruction
system.switch_cpus.op_class::SimdFloatCvt            2      5.56%     69.44% # Class of executed instruction
system.switch_cpus.op_class::SimdFloatDiv            0      0.00%     69.44% # Class of executed instruction
system.switch_cpus.op_class::SimdFloatMisc            0      0.00%     69.44% # Class of executed instruction
system.switch_cpus.op_class::SimdFloatMult            1      2.78%     72.22% # Class of executed instruction
system.switch_cpus.op_class::SimdFloatMultAcc            0      0.00%     72.22% # Class of executed instruction
system.switch_cpus.op_class::SimdFloatSqrt            0      0.00%     72.22% # Class of executed instruction
system.switch_cpus.op_class::SimdAes                0      0.00%     72.22% # Class of executed instruction
system.switch_cpus.op_class::SimdAesMix             0      0.00%     72.22% # Class of executed instruction
system.switch_cpus.op_class::SimdSha1Hash            0      0.00%     72.22% # Class of executed instruction
system.switch_cpus.op_class::SimdSha1Hash2            0      0.00%     72.22% # Class of executed instruction
system.switch_cpus.op_class::SimdSha256Hash            0      0.00%     72.22% # Class of executed instruction
system.switch_cpus.op_class::SimdSha256Hash2            0      0.00%     72.22% # Class of executed instruction
system.switch_cpus.op_class::SimdShaSigma2            0      0.00%     72.22% # Class of executed instruction
system.switch_cpus.op_class::SimdShaSigma3            0      0.00%     72.22% # Class of executed instruction
system.switch_cpus.op_class::MemRead                5     13.89%     86.11% # Class of executed instruction
system.switch_cpus.op_class::MemWrite               2      5.56%     91.67% # Class of executed instruction
system.switch_cpus.op_class::FloatMemRead            3      8.33%    100.00% # Class of executed instruction
system.switch_cpus.op_class::FloatMemWrite            0      0.00%    100.00% # Class of executed instruction
system.switch_cpus.op_class::IprAccess              0      0.00%    100.00% # Class of executed instruction
system.switch_cpus.op_class::InstPrefetch            0      0.00%    100.00% # Class of executed instruction
system.switch_cpus.op_class::total                 36                       # Class of executed instruction
system.switch_cpus.pwrStateResidencyTicks::ON      2260000                       # Cumulative time (in ticks) in various power states
system.voltage_domain.voltage                       1                       # Voltage in Volts

---------- End Simulation Statistics   ----------
