
---------- Begin Simulation Statistics ----------
final_tick                               346943407142000                       # Number of ticks from beginning of simulation (restored from checkpoints and never reset)
host_inst_rate                               17113210                       # Simulator instruction rate (inst/s)
host_mem_usage                                 963536                       # Number of bytes of host memory used
host_op_rate                                 31675090                       # Simulator op (including micro ops) rate (op/s)
host_seconds                                     0.44                       # Real time elapsed on the host
host_tick_rate                            17934105698                       # Simulator tick rate (ticks/s)
sim_freq                                 1000000000000                       # Frequency of simulated ticks
sim_insts                                     7458910                       # Number of instructions simulated
sim_ops                                      13808573                       # Number of ops (including micro ops) simulated
sim_seconds                                  0.007819                       # Number of seconds simulated
sim_ticks                                  7818568000                       # Number of ticks simulated
system.apicbridge.pwrStateResidencyTicks::UNDEFINED 346943407142000                       # Cumulative time (in ticks) in various power states
system.bridge.pwrStateResidencyTicks::UNDEFINED 346943407142000                       # Cumulative time (in ticks) in various power states
system.clk_domain.clock                          1000                       # Clock period in ticks
system.cpu.apic_clk_domain.clock                 8000                       # Clock period in ticks
system.cpu.committedInsts                           0                       # Number of instructions committed
system.cpu.committedOps                             0                       # Number of ops (including micro ops) committed
system.cpu.dtb.pwrStateResidencyTicks::UNDEFINED 346943407142000                       # Cumulative time (in ticks) in various power states
system.cpu.dtb.rdAccesses                           0                       # TLB accesses on read requests
system.cpu.dtb.rdMisses                             0                       # TLB misses on read requests
system.cpu.dtb.walker.pwrStateResidencyTicks::UNDEFINED 346943407142000                       # Cumulative time (in ticks) in various power states
system.cpu.dtb.wrAccesses                           0                       # TLB accesses on write requests
system.cpu.dtb.wrMisses                             0                       # TLB misses on write requests
system.cpu.idle_fraction                            0                       # Percentage of idle cycles
system.cpu.interrupts.pwrStateResidencyTicks::UNDEFINED 346943407142000                       # Cumulative time (in ticks) in various power states
system.cpu.itb.pwrStateResidencyTicks::UNDEFINED 346943407142000                       # Cumulative time (in ticks) in various power states
system.cpu.itb.rdAccesses                           0                       # TLB accesses on read requests
system.cpu.itb.rdMisses                             0                       # TLB misses on read requests
system.cpu.itb.walker.pwrStateResidencyTicks::UNDEFINED 346943407142000                       # Cumulative time (in ticks) in various power states
system.cpu.itb.wrAccesses                           0                       # TLB accesses on write requests
system.cpu.itb.wrMisses                             0                       # TLB misses on write requests
system.cpu.kern.inst.arm                            0                       # number of arm instructions executed
system.cpu.kern.inst.quiesce                        0                       # number of quiesce instructions executed
system.cpu.not_idle_fraction                        1                       # Percentage of non-idle cycles
system.cpu.numCycles                                0                       # number of cpu cycles simulated
system.cpu.numWorkItemsCompleted                    0                       # number of work items this cpu completed
system.cpu.numWorkItemsStarted                      0                       # number of work items this cpu started
system.cpu.num_busy_cycles                          0                       # Number of busy cycles
system.cpu.num_conditional_control_insts            0                       # number of instructions that are conditional controls
system.cpu.num_fp_alu_accesses                      0                       # Number of float alu accesses
system.cpu.num_fp_insts                             0                       # number of float instructions
system.cpu.num_fp_register_reads                    0                       # number of times the floating registers were read
system.cpu.num_fp_register_writes                   0                       # number of times the floating registers were written
system.cpu.num_func_calls                           0                       # number of times a function call or return occured
system.cpu.num_idle_cycles                          0                       # Number of idle cycles
system.cpu.num_int_alu_accesses                     0                       # Number of integer alu accesses
system.cpu.num_int_insts                            0                       # number of integer instructions
system.cpu.num_int_register_reads                   0                       # number of times the integer registers were read
system.cpu.num_int_register_writes                  0                       # number of times the integer registers were written
system.cpu.num_load_insts                           0                       # Number of load instructions
system.cpu.num_mem_refs                             0                       # number of memory refs
system.cpu.num_store_insts                          0                       # Number of store instructions
system.cpu.num_vec_alu_accesses                     0                       # Number of vector alu accesses
system.cpu.num_vec_insts                            0                       # number of vector instructions
system.cpu.num_vec_register_reads                   0                       # number of times the vector registers were read
system.cpu.num_vec_register_writes                  0                       # number of times the vector registers were written
system.cpu.op_class::No_OpClass                     0                       # Class of executed instruction
system.cpu.op_class::IntAlu                         0                       # Class of executed instruction
system.cpu.op_class::IntMult                        0                       # Class of executed instruction
system.cpu.op_class::IntDiv                         0                       # Class of executed instruction
system.cpu.op_class::FloatAdd                       0                       # Class of executed instruction
system.cpu.op_class::FloatCmp                       0                       # Class of executed instruction
system.cpu.op_class::FloatCvt                       0                       # Class of executed instruction
system.cpu.op_class::FloatMult                      0                       # Class of executed instruction
system.cpu.op_class::FloatMultAcc                   0                       # Class of executed instruction
system.cpu.op_class::FloatDiv                       0                       # Class of executed instruction
system.cpu.op_class::FloatMisc                      0                       # Class of executed instruction
system.cpu.op_class::FloatSqrt                      0                       # Class of executed instruction
system.cpu.op_class::SimdAdd                        0                       # Class of executed instruction
system.cpu.op_class::SimdAddAcc                     0                       # Class of executed instruction
system.cpu.op_class::SimdAlu                        0                       # Class of executed instruction
system.cpu.op_class::SimdCmp                        0                       # Class of executed instruction
system.cpu.op_class::SimdCvt                        0                       # Class of executed instruction
system.cpu.op_class::SimdMisc                       0                       # Class of executed instruction
system.cpu.op_class::SimdMult                       0                       # Class of executed instruction
system.cpu.op_class::SimdMultAcc                    0                       # Class of executed instruction
system.cpu.op_class::SimdShift                      0                       # Class of executed instruction
system.cpu.op_class::SimdShiftAcc                   0                       # Class of executed instruction
system.cpu.op_class::SimdSqrt                       0                       # Class of executed instruction
system.cpu.op_class::SimdFloatAdd                   0                       # Class of executed instruction
system.cpu.op_class::SimdFloatAlu                   0                       # Class of executed instruction
system.cpu.op_class::SimdFloatCmp                   0                       # Class of executed instruction
system.cpu.op_class::SimdFloatCvt                   0                       # Class of executed instruction
system.cpu.op_class::SimdFloatDiv                   0                       # Class of executed instruction
system.cpu.op_class::SimdFloatMisc                  0                       # Class of executed instruction
system.cpu.op_class::SimdFloatMult                  0                       # Class of executed instruction
system.cpu.op_class::SimdFloatMultAcc               0                       # Class of executed instruction
system.cpu.op_class::SimdFloatSqrt                  0                       # Class of executed instruction
system.cpu.op_class::SimdAes                        0                       # Class of executed instruction
system.cpu.op_class::SimdAesMix                     0                       # Class of executed instruction
system.cpu.op_class::SimdSha1Hash                   0                       # Class of executed instruction
system.cpu.op_class::SimdSha1Hash2                  0                       # Class of executed instruction
system.cpu.op_class::SimdSha256Hash                 0                       # Class of executed instruction
system.cpu.op_class::SimdSha256Hash2                0                       # Class of executed instruction
system.cpu.op_class::SimdShaSigma2                  0                       # Class of executed instruction
system.cpu.op_class::SimdShaSigma3                  0                       # Class of executed instruction
system.cpu.op_class::MemRead                        0                       # Class of executed instruction
system.cpu.op_class::MemWrite                       0                       # Class of executed instruction
system.cpu.op_class::FloatMemRead                   0                       # Class of executed instruction
system.cpu.op_class::FloatMemWrite                  0                       # Class of executed instruction
system.cpu.op_class::IprAccess                      0                       # Class of executed instruction
system.cpu.op_class::InstPrefetch                   0                       # Class of executed instruction
system.cpu.op_class::total                          0                       # Class of executed instruction
system.cpu.pwrStateResidencyTicks::OFF   1812267226500                       # Cumulative time (in ticks) in various power states
system.cpu_clk_domain.clock                       500                       # Clock period in ticks
system.cpu_voltage_domain.voltage                   1                       # Voltage in Volts
system.iobridge.pwrStateResidencyTicks::UNDEFINED 346943407142000                       # Cumulative time (in ticks) in various power states
system.iobus.pkt_count_system.bridge.master::system.pc.com_1.pio          184                       # Packet count per connected master and slave (bytes)
system.iobus.pkt_count_system.bridge.master::total          184                       # Packet count per connected master and slave (bytes)
system.iobus.pkt_count_system.pc.south_bridge.io_apic.int_master::system.apicbridge.slave           46                       # Packet count per connected master and slave (bytes)
system.iobus.pkt_count_system.pc.south_bridge.io_apic.int_master::total           46                       # Packet count per connected master and slave (bytes)
system.iobus.pkt_count::total                     230                       # Packet count per connected master and slave (bytes)
system.iobus.pkt_size_system.bridge.master::system.pc.com_1.pio           92                       # Cumulative packet size per connected master and slave (bytes)
system.iobus.pkt_size_system.bridge.master::total           92                       # Cumulative packet size per connected master and slave (bytes)
system.iobus.pkt_size_system.pc.south_bridge.io_apic.int_master::system.apicbridge.slave           92                       # Cumulative packet size per connected master and slave (bytes)
system.iobus.pkt_size_system.pc.south_bridge.io_apic.int_master::total           92                       # Cumulative packet size per connected master and slave (bytes)
system.iobus.pkt_size::total                      184                       # Cumulative packet size per connected master and slave (bytes)
system.iobus.pwrStateResidencyTicks::UNDEFINED 346943407142000                       # Cumulative time (in ticks) in various power states
system.iobus.reqLayer0.occupancy                46000                       # Layer occupancy (ticks)
system.iobus.reqLayer0.utilization                0.0                       # Layer utilization (%)
system.iobus.reqLayer13.occupancy              119000                       # Layer occupancy (ticks)
system.iobus.reqLayer13.utilization               0.0                       # Layer utilization (%)
system.iobus.respLayer0.occupancy              157000                       # Layer occupancy (ticks)
system.iobus.respLayer0.utilization               0.0                       # Layer utilization (%)
system.iobus.respLayer3.occupancy               23000                       # Layer occupancy (ticks)
system.iobus.respLayer3.utilization               0.0                       # Layer utilization (%)
system.iobus.trans_dist::ReadReq                   65                       # Transaction distribution
system.iobus.trans_dist::ReadResp                  65                       # Transaction distribution
system.iobus.trans_dist::WriteReq                  27                       # Transaction distribution
system.iobus.trans_dist::WriteResp                 27                       # Transaction distribution
system.iobus.trans_dist::MessageReq                23                       # Transaction distribution
system.iobus.trans_dist::MessageResp               23                       # Transaction distribution
system.mem_ctrls.avgBusLat                    5000.00                       # Average bus latency per DRAM burst
system.mem_ctrls.avgGap                      55246.12                       # Average gap between requests
system.mem_ctrls.avgMemAccLat                29397.33                       # Average memory access latency per DRAM burst
system.mem_ctrls.avgPriority_.switch_cpus.dtb.walker::samples        85.00                       # Average QoS priority value for accepted requests
system.mem_ctrls.avgPriority_.switch_cpus.itb.walker::samples       140.00                       # Average QoS priority value for accepted requests
system.mem_ctrls.avgPriority_.switch_cpus.inst::samples    105381.00                       # Average QoS priority value for accepted requests
system.mem_ctrls.avgPriority_.switch_cpus.data::samples     19164.00                       # Average QoS priority value for accepted requests
system.mem_ctrls.avgQLat                     10647.33                       # Average queueing delay per DRAM burst
system.mem_ctrls.avgRdBW                      1013.70                       # Average DRAM read bandwidth in MiByte/s
system.mem_ctrls.avgRdBWSys                    126.93                       # Average system read bandwidth in MiByte/s
system.mem_ctrls.avgRdQLen                       1.00                       # Average read queue length when enqueuing
system.mem_ctrls.avgWrBW                         7.62                       # Average achieved write bandwidth in MiByte/s
system.mem_ctrls.avgWrBWSys                     12.33                       # Average system write bandwidth in MiByte/s
system.mem_ctrls.avgWrQLen                      27.43                       # Average write queue length when enqueuing
system.mem_ctrls.busUtil                         7.98                       # Data bus utilization in percentage
system.mem_ctrls.busUtilRead                     7.92                       # Data bus utilization in percentage for reads
system.mem_ctrls.busUtilWrite                    0.06                       # Data bus utilization in percentage for writes
system.mem_ctrls.bw_inst_read::.switch_cpus.inst    107826395                       # Instruction read bandwidth from this memory (bytes/s)
system.mem_ctrls.bw_inst_read::total        107826395                       # Instruction read bandwidth from this memory (bytes/s)
system.mem_ctrls.bw_read::.switch_cpus.dtb.walker        93112                       # Total read bandwidth from this memory (bytes/s)
system.mem_ctrls.bw_read::.switch_cpus.itb.walker       155527                       # Total read bandwidth from this memory (bytes/s)
system.mem_ctrls.bw_read::.switch_cpus.inst    107826395                       # Total read bandwidth from this memory (bytes/s)
system.mem_ctrls.bw_read::.switch_cpus.data     18853325                       # Total read bandwidth from this memory (bytes/s)
system.mem_ctrls.bw_read::total             126928358                       # Total read bandwidth from this memory (bytes/s)
system.mem_ctrls.bw_total::.switch_cpus.dtb.walker        93112                       # Total bandwidth to/from this memory (bytes/s)
system.mem_ctrls.bw_total::.switch_cpus.itb.walker       155527                       # Total bandwidth to/from this memory (bytes/s)
system.mem_ctrls.bw_total::.switch_cpus.inst    107826395                       # Total bandwidth to/from this memory (bytes/s)
system.mem_ctrls.bw_total::.switch_cpus.data     31181797                       # Total bandwidth to/from this memory (bytes/s)
system.mem_ctrls.bw_total::total            139256831                       # Total bandwidth to/from this memory (bytes/s)
system.mem_ctrls.bw_write::.switch_cpus.data     12328472                       # Write bandwidth from this memory (bytes/s)
system.mem_ctrls.bw_write::total             12328472                       # Write bandwidth from this memory (bytes/s)
system.mem_ctrls.bytesPerActivate::samples        15039                       # Bytes accessed per row activation
system.mem_ctrls.bytesPerActivate::mean    530.941685                       # Bytes accessed per row activation
system.mem_ctrls.bytesPerActivate::gmean   328.831814                       # Bytes accessed per row activation
system.mem_ctrls.bytesPerActivate::stdev   401.723085                       # Bytes accessed per row activation
system.mem_ctrls.bytesPerActivate::0-127         3701     24.61%     24.61% # Bytes accessed per row activation
system.mem_ctrls.bytesPerActivate::128-255         1712     11.38%     35.99% # Bytes accessed per row activation
system.mem_ctrls.bytesPerActivate::256-383         1271      8.45%     44.44% # Bytes accessed per row activation
system.mem_ctrls.bytesPerActivate::384-511          962      6.40%     50.84% # Bytes accessed per row activation
system.mem_ctrls.bytesPerActivate::512-639          788      5.24%     56.08% # Bytes accessed per row activation
system.mem_ctrls.bytesPerActivate::640-767          657      4.37%     60.45% # Bytes accessed per row activation
system.mem_ctrls.bytesPerActivate::768-895          751      4.99%     65.44% # Bytes accessed per row activation
system.mem_ctrls.bytesPerActivate::896-1023          533      3.54%     68.99% # Bytes accessed per row activation
system.mem_ctrls.bytesPerActivate::1024-1151         4664     31.01%    100.00% # Bytes accessed per row activation
system.mem_ctrls.bytesPerActivate::total        15039                       # Bytes accessed per row activation
system.mem_ctrls.bytesReadDRAM                7925696                       # Total number of bytes read from DRAM
system.mem_ctrls.bytesReadSys                  992398                       # Total read bytes from the system interface side
system.mem_ctrls.bytesReadWrQ                  257088                       # Total number of bytes read from write queue
system.mem_ctrls.bytesWritten                   59584                       # Total number of bytes written to DRAM
system.mem_ctrls.bytesWrittenSys                96391                       # Total written bytes from the system interface side
system.mem_ctrls.bytes_inst_read::.switch_cpus.inst       843048                       # Number of instructions bytes read from this memory
system.mem_ctrls.bytes_inst_read::total        843048                       # Number of instructions bytes read from this memory
system.mem_ctrls.bytes_read::.switch_cpus.dtb.walker          728                       # Number of bytes read from this memory
system.mem_ctrls.bytes_read::.switch_cpus.itb.walker         1216                       # Number of bytes read from this memory
system.mem_ctrls.bytes_read::.switch_cpus.inst       843048                       # Number of bytes read from this memory
system.mem_ctrls.bytes_read::.switch_cpus.data       147406                       # Number of bytes read from this memory
system.mem_ctrls.bytes_read::total             992398                       # Number of bytes read from this memory
system.mem_ctrls.bytes_written::.switch_cpus.data        96391                       # Number of bytes written to this memory
system.mem_ctrls.bytes_written::total           96391                       # Number of bytes written to this memory
system.mem_ctrls.masterReadAccesses::.switch_cpus.dtb.walker           91                       # Per-master read serviced memory accesses
system.mem_ctrls.masterReadAccesses::.switch_cpus.itb.walker          152                       # Per-master read serviced memory accesses
system.mem_ctrls.masterReadAccesses::.switch_cpus.inst       105381                       # Per-master read serviced memory accesses
system.mem_ctrls.masterReadAccesses::.switch_cpus.data        22232                       # Per-master read serviced memory accesses
system.mem_ctrls.masterReadAvgLat::.switch_cpus.dtb.walker     46733.52                       # Per-master read average memory access latency
system.mem_ctrls.masterReadAvgLat::.switch_cpus.itb.walker     38238.49                       # Per-master read average memory access latency
system.mem_ctrls.masterReadAvgLat::.switch_cpus.inst     28429.47                       # Per-master read average memory access latency
system.mem_ctrls.masterReadAvgLat::.switch_cpus.data     28541.98                       # Per-master read average memory access latency
system.mem_ctrls.masterReadBytes::.switch_cpus.dtb.walker          680                       # Per-master bytes read from memory
system.mem_ctrls.masterReadBytes::.switch_cpus.itb.walker         1120                       # Per-master bytes read from memory
system.mem_ctrls.masterReadBytes::.switch_cpus.inst       843048                       # Per-master bytes read from memory
system.mem_ctrls.masterReadBytes::.switch_cpus.data       120494                       # Per-master bytes read from memory
system.mem_ctrls.masterReadRate::.switch_cpus.dtb.walker 86972.448151630844                       # Per-master bytes read from memory rate (Bytes/sec)
system.mem_ctrls.masterReadRate::.switch_cpus.itb.walker 143248.738132097846                       # Per-master bytes read from memory rate (Bytes/sec)
system.mem_ctrls.masterReadRate::.switch_cpus.inst 107826394.807847172022                       # Per-master bytes read from memory rate (Bytes/sec)
system.mem_ctrls.masterReadRate::.switch_cpus.data 15411262.011150890961                       # Per-master bytes read from memory rate (Bytes/sec)
system.mem_ctrls.masterReadTotalLat::.switch_cpus.dtb.walker      4252750                       # Per-master read total memory access latency
system.mem_ctrls.masterReadTotalLat::.switch_cpus.itb.walker      5812250                       # Per-master read total memory access latency
system.mem_ctrls.masterReadTotalLat::.switch_cpus.inst   2995925750                       # Per-master read total memory access latency
system.mem_ctrls.masterReadTotalLat::.switch_cpus.data    634545250                       # Per-master read total memory access latency
system.mem_ctrls.masterWriteAccesses::.switch_cpus.data        13667                       # Per-master write serviced memory accesses
system.mem_ctrls.masterWriteAvgLat::.switch_cpus.data  15689904.61                       # Per-master write average memory access latency
system.mem_ctrls.masterWriteBytes::.switch_cpus.data         6055                       # Per-master bytes write to memory
system.mem_ctrls.masterWriteRate::.switch_cpus.data 774438.490526654059                       # Per-master bytes write to memory rate (Bytes/sec)
system.mem_ctrls.masterWriteTotalLat::.switch_cpus.data 214433926250                       # Per-master write total memory access latency
system.mem_ctrls.mergedWrBursts                 12736                       # Number of DRAM write bursts merged with an existing one
system.mem_ctrls.neitherReadNorWriteReqs            0                       # Number of requests that are neither read nor write
system.mem_ctrls.numRdRetry                         0                       # Number of times read queue was full causing retry
system.mem_ctrls.numReadWriteTurnArounds           58                       # Number of turnarounds from READ to WRITE
system.mem_ctrls.numStayReadState              263278                       # Number of times bus staying in READ state
system.mem_ctrls.numStayWriteState                880                       # Number of times bus staying in WRITE state
system.mem_ctrls.numWrRetry                         0                       # Number of times write queue was full causing retry
system.mem_ctrls.numWriteReadTurnArounds           58                       # Number of turnarounds from WRITE to READ
system.mem_ctrls.num_reads::.switch_cpus.dtb.walker           91                       # Number of read requests responded to by this memory
system.mem_ctrls.num_reads::.switch_cpus.itb.walker          152                       # Number of read requests responded to by this memory
system.mem_ctrls.num_reads::.switch_cpus.inst       105381                       # Number of read requests responded to by this memory
system.mem_ctrls.num_reads::.switch_cpus.data        22232                       # Number of read requests responded to by this memory
system.mem_ctrls.num_reads::total              127856                       # Number of read requests responded to by this memory
system.mem_ctrls.num_writes::.switch_cpus.data        13667                       # Number of write requests responded to by this memory
system.mem_ctrls.num_writes::total              13667                       # Number of write requests responded to by this memory
system.mem_ctrls.pageHitRate                    87.95                       # Row buffer hit rate, read and write combined
system.mem_ctrls.peakBW                      12800.00                       # Theoretical peak bandwidth in MiByte/s
system.mem_ctrls.perBankRdBursts::0              5460                       # Per bank write bursts
system.mem_ctrls.perBankRdBursts::1              7195                       # Per bank write bursts
system.mem_ctrls.perBankRdBursts::2              4716                       # Per bank write bursts
system.mem_ctrls.perBankRdBursts::3              6451                       # Per bank write bursts
system.mem_ctrls.perBankRdBursts::4             10086                       # Per bank write bursts
system.mem_ctrls.perBankRdBursts::5              2714                       # Per bank write bursts
system.mem_ctrls.perBankRdBursts::6             24313                       # Per bank write bursts
system.mem_ctrls.perBankRdBursts::7              5654                       # Per bank write bursts
system.mem_ctrls.perBankRdBursts::8               796                       # Per bank write bursts
system.mem_ctrls.perBankRdBursts::9              6569                       # Per bank write bursts
system.mem_ctrls.perBankRdBursts::10            14887                       # Per bank write bursts
system.mem_ctrls.perBankRdBursts::11             1929                       # Per bank write bursts
system.mem_ctrls.perBankRdBursts::12             1387                       # Per bank write bursts
system.mem_ctrls.perBankRdBursts::13            27289                       # Per bank write bursts
system.mem_ctrls.perBankRdBursts::14             2965                       # Per bank write bursts
system.mem_ctrls.perBankRdBursts::15             1428                       # Per bank write bursts
system.mem_ctrls.perBankWrBursts::0                 5                       # Per bank write bursts
system.mem_ctrls.perBankWrBursts::1               119                       # Per bank write bursts
system.mem_ctrls.perBankWrBursts::2                30                       # Per bank write bursts
system.mem_ctrls.perBankWrBursts::3               255                       # Per bank write bursts
system.mem_ctrls.perBankWrBursts::4               110                       # Per bank write bursts
system.mem_ctrls.perBankWrBursts::5                26                       # Per bank write bursts
system.mem_ctrls.perBankWrBursts::6                60                       # Per bank write bursts
system.mem_ctrls.perBankWrBursts::7                34                       # Per bank write bursts
system.mem_ctrls.perBankWrBursts::8                35                       # Per bank write bursts
system.mem_ctrls.perBankWrBursts::9                23                       # Per bank write bursts
system.mem_ctrls.perBankWrBursts::10              110                       # Per bank write bursts
system.mem_ctrls.perBankWrBursts::11               63                       # Per bank write bursts
system.mem_ctrls.perBankWrBursts::12               25                       # Per bank write bursts
system.mem_ctrls.perBankWrBursts::13                7                       # Per bank write bursts
system.mem_ctrls.perBankWrBursts::14                9                       # Per bank write bursts
system.mem_ctrls.perBankWrBursts::15               20                       # Per bank write bursts
system.mem_ctrls.priorityMaxLatency      0.008248307750                       # per QoS priority maximum request to response latency (s)
system.mem_ctrls.priorityMinLatency      0.000000018750                       # per QoS priority minimum request to response latency (s)
system.mem_ctrls.pwrStateResidencyTicks::UNDEFINED 346943407142000                       # Cumulative time (in ticks) in various power states
system.mem_ctrls.rdPerTurnAround::samples           58                       # Reads before turning the bus around for writes
system.mem_ctrls.rdPerTurnAround::mean    2131.103448                       # Reads before turning the bus around for writes
system.mem_ctrls.rdPerTurnAround::gmean   1028.024295                       # Reads before turning the bus around for writes
system.mem_ctrls.rdPerTurnAround::stdev   6362.068167                       # Reads before turning the bus around for writes
system.mem_ctrls.rdPerTurnAround::0-2047           51     87.93%     87.93% # Reads before turning the bus around for writes
system.mem_ctrls.rdPerTurnAround::2048-4095            4      6.90%     94.83% # Reads before turning the bus around for writes
system.mem_ctrls.rdPerTurnAround::4096-6143            1      1.72%     96.55% # Reads before turning the bus around for writes
system.mem_ctrls.rdPerTurnAround::10240-12287            1      1.72%     98.28% # Reads before turning the bus around for writes
system.mem_ctrls.rdPerTurnAround::47104-49151            1      1.72%    100.00% # Reads before turning the bus around for writes
system.mem_ctrls.rdPerTurnAround::total            58                       # Reads before turning the bus around for writes
system.mem_ctrls.rdQLenPdf::0                  123837                       # What read queue length does an incoming req see
system.mem_ctrls.rdQLenPdf::1                       2                       # What read queue length does an incoming req see
system.mem_ctrls.rdQLenPdf::2                       0                       # What read queue length does an incoming req see
system.mem_ctrls.rdQLenPdf::3                       0                       # What read queue length does an incoming req see
system.mem_ctrls.rdQLenPdf::4                       0                       # What read queue length does an incoming req see
system.mem_ctrls.rdQLenPdf::5                       0                       # What read queue length does an incoming req see
system.mem_ctrls.rdQLenPdf::6                       0                       # What read queue length does an incoming req see
system.mem_ctrls.rdQLenPdf::7                       0                       # What read queue length does an incoming req see
system.mem_ctrls.rdQLenPdf::8                       0                       # What read queue length does an incoming req see
system.mem_ctrls.rdQLenPdf::9                       0                       # What read queue length does an incoming req see
system.mem_ctrls.rdQLenPdf::10                      0                       # What read queue length does an incoming req see
system.mem_ctrls.rdQLenPdf::11                      0                       # What read queue length does an incoming req see
system.mem_ctrls.rdQLenPdf::12                      0                       # What read queue length does an incoming req see
system.mem_ctrls.rdQLenPdf::13                      0                       # What read queue length does an incoming req see
system.mem_ctrls.rdQLenPdf::14                      0                       # What read queue length does an incoming req see
system.mem_ctrls.rdQLenPdf::15                      0                       # What read queue length does an incoming req see
system.mem_ctrls.rdQLenPdf::16                      0                       # What read queue length does an incoming req see
system.mem_ctrls.rdQLenPdf::17                      0                       # What read queue length does an incoming req see
system.mem_ctrls.rdQLenPdf::18                      0                       # What read queue length does an incoming req see
system.mem_ctrls.rdQLenPdf::19                      0                       # What read queue length does an incoming req see
system.mem_ctrls.rdQLenPdf::20                      0                       # What read queue length does an incoming req see
system.mem_ctrls.rdQLenPdf::21                      0                       # What read queue length does an incoming req see
system.mem_ctrls.rdQLenPdf::22                      0                       # What read queue length does an incoming req see
system.mem_ctrls.rdQLenPdf::23                      0                       # What read queue length does an incoming req see
system.mem_ctrls.rdQLenPdf::24                      0                       # What read queue length does an incoming req see
system.mem_ctrls.rdQLenPdf::25                      0                       # What read queue length does an incoming req see
system.mem_ctrls.rdQLenPdf::26                      0                       # What read queue length does an incoming req see
system.mem_ctrls.rdQLenPdf::27                      0                       # What read queue length does an incoming req see
system.mem_ctrls.rdQLenPdf::28                      0                       # What read queue length does an incoming req see
system.mem_ctrls.rdQLenPdf::29                      0                       # What read queue length does an incoming req see
system.mem_ctrls.rdQLenPdf::30                      0                       # What read queue length does an incoming req see
system.mem_ctrls.rdQLenPdf::31                      0                       # What read queue length does an incoming req see
system.mem_ctrls.readBursts                    127856                       # Number of DRAM read bursts, including those serviced by the write queue
system.mem_ctrls.readPktSize::0                   941                       # Read request sizes (log2)
system.mem_ctrls.readPktSize::1                   177                       # Read request sizes (log2)
system.mem_ctrls.readPktSize::2                  5700                       # Read request sizes (log2)
system.mem_ctrls.readPktSize::3                121038                       # Read request sizes (log2)
system.mem_ctrls.readPktSize::4                     0                       # Read request sizes (log2)
system.mem_ctrls.readPktSize::5                     0                       # Read request sizes (log2)
system.mem_ctrls.readPktSize::6                     0                       # Read request sizes (log2)
system.mem_ctrls.readReqs                      127856                       # Number of read requests accepted
system.mem_ctrls.readRowHitRate                 88.03                       # Row buffer hit rate for reads
system.mem_ctrls.readRowHits                   109017                       # Number of row buffer hits during reads
system.mem_ctrls.servicedByWrQ                   4017                       # Number of DRAM read bursts serviced by the write queue
system.mem_ctrls.totBusLat                  619195000                       # Total ticks spent in databus transfers
system.mem_ctrls.totGap                    7818596000                       # Total gap between requests
system.mem_ctrls.totMemAccLat              3640536000                       # Total ticks spent from burst creation until serviced by the DRAM
system.mem_ctrls.totQLat                   1318554750                       # Total ticks spent queuing
system.mem_ctrls.wrPerTurnAround::samples           58                       # Writes before turning the bus around for reads
system.mem_ctrls.wrPerTurnAround::mean      16.051724                       # Writes before turning the bus around for reads
system.mem_ctrls.wrPerTurnAround::gmean     16.047477                       # Writes before turning the bus around for reads
system.mem_ctrls.wrPerTurnAround::stdev      0.393919                       # Writes before turning the bus around for reads
system.mem_ctrls.wrPerTurnAround::16               57     98.28%     98.28% # Writes before turning the bus around for reads
system.mem_ctrls.wrPerTurnAround::19                1      1.72%    100.00% # Writes before turning the bus around for reads
system.mem_ctrls.wrPerTurnAround::total            58                       # Writes before turning the bus around for reads
system.mem_ctrls.wrQLenPdf::0                       0                       # What write queue length does an incoming req see
system.mem_ctrls.wrQLenPdf::1                       0                       # What write queue length does an incoming req see
system.mem_ctrls.wrQLenPdf::2                       0                       # What write queue length does an incoming req see
system.mem_ctrls.wrQLenPdf::3                       0                       # What write queue length does an incoming req see
system.mem_ctrls.wrQLenPdf::4                       0                       # What write queue length does an incoming req see
system.mem_ctrls.wrQLenPdf::5                       0                       # What write queue length does an incoming req see
system.mem_ctrls.wrQLenPdf::6                       0                       # What write queue length does an incoming req see
system.mem_ctrls.wrQLenPdf::7                       0                       # What write queue length does an incoming req see
system.mem_ctrls.wrQLenPdf::8                       0                       # What write queue length does an incoming req see
system.mem_ctrls.wrQLenPdf::9                       0                       # What write queue length does an incoming req see
system.mem_ctrls.wrQLenPdf::10                      0                       # What write queue length does an incoming req see
system.mem_ctrls.wrQLenPdf::11                      0                       # What write queue length does an incoming req see
system.mem_ctrls.wrQLenPdf::12                      0                       # What write queue length does an incoming req see
system.mem_ctrls.wrQLenPdf::13                      0                       # What write queue length does an incoming req see
system.mem_ctrls.wrQLenPdf::14                      0                       # What write queue length does an incoming req see
system.mem_ctrls.wrQLenPdf::15                      1                       # What write queue length does an incoming req see
system.mem_ctrls.wrQLenPdf::16                      1                       # What write queue length does an incoming req see
system.mem_ctrls.wrQLenPdf::17                     58                       # What write queue length does an incoming req see
system.mem_ctrls.wrQLenPdf::18                     58                       # What write queue length does an incoming req see
system.mem_ctrls.wrQLenPdf::19                     58                       # What write queue length does an incoming req see
system.mem_ctrls.wrQLenPdf::20                     58                       # What write queue length does an incoming req see
system.mem_ctrls.wrQLenPdf::21                     58                       # What write queue length does an incoming req see
system.mem_ctrls.wrQLenPdf::22                     58                       # What write queue length does an incoming req see
system.mem_ctrls.wrQLenPdf::23                     58                       # What write queue length does an incoming req see
system.mem_ctrls.wrQLenPdf::24                     58                       # What write queue length does an incoming req see
system.mem_ctrls.wrQLenPdf::25                     59                       # What write queue length does an incoming req see
system.mem_ctrls.wrQLenPdf::26                     58                       # What write queue length does an incoming req see
system.mem_ctrls.wrQLenPdf::27                     58                       # What write queue length does an incoming req see
system.mem_ctrls.wrQLenPdf::28                     58                       # What write queue length does an incoming req see
system.mem_ctrls.wrQLenPdf::29                     58                       # What write queue length does an incoming req see
system.mem_ctrls.wrQLenPdf::30                     58                       # What write queue length does an incoming req see
system.mem_ctrls.wrQLenPdf::31                     58                       # What write queue length does an incoming req see
system.mem_ctrls.wrQLenPdf::32                     58                       # What write queue length does an incoming req see
system.mem_ctrls.wrQLenPdf::33                      0                       # What write queue length does an incoming req see
system.mem_ctrls.wrQLenPdf::34                      0                       # What write queue length does an incoming req see
system.mem_ctrls.wrQLenPdf::35                      0                       # What write queue length does an incoming req see
system.mem_ctrls.wrQLenPdf::36                      0                       # What write queue length does an incoming req see
system.mem_ctrls.wrQLenPdf::37                      0                       # What write queue length does an incoming req see
system.mem_ctrls.wrQLenPdf::38                      0                       # What write queue length does an incoming req see
system.mem_ctrls.wrQLenPdf::39                      0                       # What write queue length does an incoming req see
system.mem_ctrls.wrQLenPdf::40                      0                       # What write queue length does an incoming req see
system.mem_ctrls.wrQLenPdf::41                      0                       # What write queue length does an incoming req see
system.mem_ctrls.wrQLenPdf::42                      0                       # What write queue length does an incoming req see
system.mem_ctrls.wrQLenPdf::43                      0                       # What write queue length does an incoming req see
system.mem_ctrls.wrQLenPdf::44                      0                       # What write queue length does an incoming req see
system.mem_ctrls.wrQLenPdf::45                      0                       # What write queue length does an incoming req see
system.mem_ctrls.wrQLenPdf::46                      0                       # What write queue length does an incoming req see
system.mem_ctrls.wrQLenPdf::47                      0                       # What write queue length does an incoming req see
system.mem_ctrls.wrQLenPdf::48                      0                       # What write queue length does an incoming req see
system.mem_ctrls.wrQLenPdf::49                      0                       # What write queue length does an incoming req see
system.mem_ctrls.wrQLenPdf::50                      0                       # What write queue length does an incoming req see
system.mem_ctrls.wrQLenPdf::51                      0                       # What write queue length does an incoming req see
system.mem_ctrls.wrQLenPdf::52                      0                       # What write queue length does an incoming req see
system.mem_ctrls.wrQLenPdf::53                      0                       # What write queue length does an incoming req see
system.mem_ctrls.wrQLenPdf::54                      0                       # What write queue length does an incoming req see
system.mem_ctrls.wrQLenPdf::55                      0                       # What write queue length does an incoming req see
system.mem_ctrls.wrQLenPdf::56                      0                       # What write queue length does an incoming req see
system.mem_ctrls.wrQLenPdf::57                      0                       # What write queue length does an incoming req see
system.mem_ctrls.wrQLenPdf::58                      0                       # What write queue length does an incoming req see
system.mem_ctrls.wrQLenPdf::59                      0                       # What write queue length does an incoming req see
system.mem_ctrls.wrQLenPdf::60                      0                       # What write queue length does an incoming req see
system.mem_ctrls.wrQLenPdf::61                      0                       # What write queue length does an incoming req see
system.mem_ctrls.wrQLenPdf::62                      0                       # What write queue length does an incoming req see
system.mem_ctrls.wrQLenPdf::63                      0                       # What write queue length does an incoming req see
system.mem_ctrls.writeBursts                    13667                       # Number of DRAM write bursts, including those merged in the write queue
system.mem_ctrls.writePktSize::0                  319                       # Write request sizes (log2)
system.mem_ctrls.writePktSize::1                  170                       # Write request sizes (log2)
system.mem_ctrls.writePktSize::2                 2423                       # Write request sizes (log2)
system.mem_ctrls.writePktSize::3                10755                       # Write request sizes (log2)
system.mem_ctrls.writePktSize::4                    0                       # Write request sizes (log2)
system.mem_ctrls.writePktSize::5                    0                       # Write request sizes (log2)
system.mem_ctrls.writePktSize::6                    0                       # Write request sizes (log2)
system.mem_ctrls.writeReqs                      13667                       # Number of write requests accepted
system.mem_ctrls.writeRowHitRate                76.80                       # Row buffer hit rate for writes
system.mem_ctrls.writeRowHits                     715                       # Number of row buffer hits during writes
system.mem_ctrls_0.actBackEnergy            966939450                       # Energy for active background per rank (pJ)
system.mem_ctrls_0.actEnergy                 61011300                       # Energy for activate commands per rank (pJ)
system.mem_ctrls_0.actPowerDownEnergy      2549200170                       # Energy for active power-down per rank (pJ)
system.mem_ctrls_0.averagePower            607.842715                       # Core power per rank (mW)
system.mem_ctrls_0.memoryStateTime::IDLE      6594000                       # Time in different power states
system.mem_ctrls_0.memoryStateTime::REF     261040000                       # Time in different power states
system.mem_ctrls_0.memoryStateTime::SREF       156000                       # Time in different power states
system.mem_ctrls_0.memoryStateTime::PRE_PDN     75346750                       # Time in different power states
system.mem_ctrls_0.memoryStateTime::ACT    1890819500                       # Time in different power states
system.mem_ctrls_0.memoryStateTime::ACT_PDN   5584642500                       # Time in different power states
system.mem_ctrls_0.preBackEnergy             14728800                       # Energy for precharge background per rank (pJ)
system.mem_ctrls_0.preEnergy                 32416890                       # Energy for precharge commands per rank (pJ)
system.mem_ctrls_0.prePowerDownEnergy        28954560                       # Energy for precharge power-down per rank (pJ)
system.mem_ctrls_0.readEnergy               475916700                       # Energy for read commands per rank (pJ)
system.mem_ctrls_0.refreshEnergy         617098560.000000                       # Energy for refresh commands per rank (pJ)
system.mem_ctrls_0.selfRefreshEnergy     2458560.000000                       # Energy for self refresh per rank (pJ)
system.mem_ctrls_0.totalEnergy             4752459600                       # Total energy per rank (pJ)
system.mem_ctrls_0.totalIdleTime           5659839750                       # Total Idle time Per DRAM Rank
system.mem_ctrls_0.writeEnergy                3335580                       # Energy for write commands per rank (pJ)
system.mem_ctrls_1.actBackEnergy            835244940                       # Energy for active background per rank (pJ)
system.mem_ctrls_1.actEnergy                 46495680                       # Energy for activate commands per rank (pJ)
system.mem_ctrls_1.actPowerDownEnergy      2395268820                       # Energy for active power-down per rank (pJ)
system.mem_ctrls_1.averagePower            589.439639                       # Core power per rank (mW)
system.mem_ctrls_1.memoryStateTime::IDLE     17022000                       # Time in different power states
system.mem_ctrls_1.memoryStateTime::REF     258700000                       # Time in different power states
system.mem_ctrls_1.memoryStateTime::SREF     66723750                       # Time in different power states
system.mem_ctrls_1.memoryStateTime::PRE_PDN    604435000                       # Time in different power states
system.mem_ctrls_1.memoryStateTime::ACT    1624076250                       # Time in different power states
system.mem_ctrls_1.memoryStateTime::ACT_PDN   5247876750                       # Time in different power states
system.mem_ctrls_1.preBackEnergy             26428800                       # Energy for precharge background per rank (pJ)
system.mem_ctrls_1.preEnergy                 24690270                       # Energy for precharge commands per rank (pJ)
system.mem_ctrls_1.prePowerDownEnergy       232294080                       # Energy for precharge power-down per rank (pJ)
system.mem_ctrls_1.readEnergy               409136280                       # Energy for read commands per rank (pJ)
system.mem_ctrls_1.refreshEnergy         611566800.000000                       # Energy for refresh commands per rank (pJ)
system.mem_ctrls_1.selfRefreshEnergy         25582680                       # Energy for self refresh per rank (pJ)
system.mem_ctrls_1.totalEnergy             4608573900                       # Total energy per rank (pJ)
system.mem_ctrls_1.totalIdleTime           5919005250                       # Total Idle time Per DRAM Rank
system.mem_ctrls_1.writeEnergy                1524240                       # Energy for write commands per rank (pJ)
system.membus.badaddr_responder.pwrStateResidencyTicks::UNDEFINED 346943407142000                       # Cumulative time (in ticks) in various power states
system.membus.pkt_count_system.apicbridge.master::system.cpu.interrupts.int_slave           46                       # Packet count per connected master and slave (bytes)
system.membus.pkt_count_system.apicbridge.master::total           46                       # Packet count per connected master and slave (bytes)
system.membus.pkt_count_system.cpu.icache_port::system.mem_ctrls.port       210762                       # Packet count per connected master and slave (bytes)
system.membus.pkt_count_system.cpu.icache_port::total       210762                       # Packet count per connected master and slave (bytes)
system.membus.pkt_count_system.cpu.dcache_port::system.bridge.slave          184                       # Packet count per connected master and slave (bytes)
system.membus.pkt_count_system.cpu.dcache_port::system.mmiofu.cpu_side         3800                       # Packet count per connected master and slave (bytes)
system.membus.pkt_count_system.cpu.dcache_port::system.cpu.interrupts.pio           20                       # Packet count per connected master and slave (bytes)
system.membus.pkt_count_system.cpu.dcache_port::system.mem_ctrls.port        71798                       # Packet count per connected master and slave (bytes)
system.membus.pkt_count_system.cpu.dcache_port::total        75802                       # Packet count per connected master and slave (bytes)
system.membus.pkt_count_system.cpu.itb.walker.port::system.mem_ctrls.port          304                       # Packet count per connected master and slave (bytes)
system.membus.pkt_count_system.cpu.itb.walker.port::total          304                       # Packet count per connected master and slave (bytes)
system.membus.pkt_count_system.cpu.dtb.walker.port::system.mem_ctrls.port          182                       # Packet count per connected master and slave (bytes)
system.membus.pkt_count_system.cpu.dtb.walker.port::total          182                       # Packet count per connected master and slave (bytes)
system.membus.pkt_count::total                 287096                       # Packet count per connected master and slave (bytes)
system.membus.pkt_size_system.apicbridge.master::system.cpu.interrupts.int_slave           92                       # Cumulative packet size per connected master and slave (bytes)
system.membus.pkt_size_system.apicbridge.master::total           92                       # Cumulative packet size per connected master and slave (bytes)
system.membus.pkt_size_system.cpu.icache_port::system.mem_ctrls.port       843048                       # Cumulative packet size per connected master and slave (bytes)
system.membus.pkt_size_system.cpu.icache_port::total       843048                       # Cumulative packet size per connected master and slave (bytes)
system.membus.pkt_size_system.cpu.dcache_port::system.bridge.slave           92                       # Cumulative packet size per connected master and slave (bytes)
system.membus.pkt_size_system.cpu.dcache_port::system.mmiofu.cpu_side        15200                       # Cumulative packet size per connected master and slave (bytes)
system.membus.pkt_size_system.cpu.dcache_port::system.cpu.interrupts.pio           40                       # Cumulative packet size per connected master and slave (bytes)
system.membus.pkt_size_system.cpu.dcache_port::system.mem_ctrls.port       243797                       # Cumulative packet size per connected master and slave (bytes)
system.membus.pkt_size_system.cpu.dcache_port::total       259129                       # Cumulative packet size per connected master and slave (bytes)
system.membus.pkt_size_system.cpu.itb.walker.port::system.mem_ctrls.port         1216                       # Cumulative packet size per connected master and slave (bytes)
system.membus.pkt_size_system.cpu.itb.walker.port::total         1216                       # Cumulative packet size per connected master and slave (bytes)
system.membus.pkt_size_system.cpu.dtb.walker.port::system.mem_ctrls.port          728                       # Cumulative packet size per connected master and slave (bytes)
system.membus.pkt_size_system.cpu.dtb.walker.port::total          728                       # Cumulative packet size per connected master and slave (bytes)
system.membus.pkt_size::total                 1104213                       # Cumulative packet size per connected master and slave (bytes)
system.membus.pwrStateResidencyTicks::UNDEFINED 346943407142000                       # Cumulative time (in ticks) in various power states
system.membus.reqLayer0.occupancy              119000                       # Layer occupancy (ticks)
system.membus.reqLayer0.utilization               0.0                       # Layer utilization (%)
system.membus.reqLayer1.occupancy             3400000                       # Layer occupancy (ticks)
system.membus.reqLayer1.utilization               0.0                       # Layer utilization (%)
system.membus.reqLayer2.occupancy               20000                       # Layer occupancy (ticks)
system.membus.reqLayer2.utilization               0.0                       # Layer utilization (%)
system.membus.reqLayer3.occupancy               46000                       # Layer occupancy (ticks)
system.membus.reqLayer3.utilization               0.0                       # Layer utilization (%)
system.membus.reqLayer4.occupancy           155190500                       # Layer occupancy (ticks)
system.membus.reqLayer4.utilization               2.0                       # Layer utilization (%)
system.membus.respLayer0.occupancy              23000                       # Layer occupancy (ticks)
system.membus.respLayer0.utilization              0.0                       # Layer utilization (%)
system.membus.respLayer3.occupancy          239749250                       # Layer occupancy (ticks)
system.membus.respLayer3.utilization              3.1                       # Layer utilization (%)
system.membus.respLayer4.occupancy           68449750                       # Layer occupancy (ticks)
system.membus.respLayer4.utilization              0.9                       # Layer utilization (%)
system.membus.respLayer5.occupancy             379750                       # Layer occupancy (ticks)
system.membus.respLayer5.utilization              0.0                       # Layer utilization (%)
system.membus.respLayer6.occupancy             232250                       # Layer occupancy (ticks)
system.membus.respLayer6.utilization              0.0                       # Layer utilization (%)
system.membus.snoopTraffic                          0                       # Total snoop traffic (bytes)
system.membus.snoop_fanout::samples            143548                       # Request fanout histogram
system.membus.snoop_fanout::mean                    0                       # Request fanout histogram
system.membus.snoop_fanout::stdev                   0                       # Request fanout histogram
system.membus.snoop_fanout::underflows              0      0.00%      0.00% # Request fanout histogram
system.membus.snoop_fanout::0                  143548    100.00%    100.00% # Request fanout histogram
system.membus.snoop_fanout::1                       0      0.00%    100.00% # Request fanout histogram
system.membus.snoop_fanout::overflows               0      0.00%    100.00% # Request fanout histogram
system.membus.snoop_fanout::min_value               0                       # Request fanout histogram
system.membus.snoop_fanout::max_value               0                       # Request fanout histogram
system.membus.snoop_fanout::total              143548                       # Request fanout histogram
system.membus.snoop_filter.hit_multi_requests            0                       # Number of requests hitting in the snoop filter with multiple (>1) holders of the requested data.
system.membus.snoop_filter.hit_multi_snoops            0                       # Number of snoops hitting in the snoop filter with multiple (>1) holders of the requested data.
system.membus.snoop_filter.hit_single_requests            0                       # Number of requests hitting in the snoop filter with a single holder of the requested data.
system.membus.snoop_filter.hit_single_snoops            0                       # Number of snoops hitting in the snoop filter with a single holder of the requested data.
system.membus.snoop_filter.tot_requests             0                       # Total number of requests made to the snoop filter.
system.membus.snoop_filter.tot_snoops               0                       # Total number of snoops made to the snoop filter.
system.membus.snoops                                0                       # Total snoops (count)
system.membus.trans_dist::ReadReq              128296                       # Transaction distribution
system.membus.trans_dist::ReadResp             128296                       # Transaction distribution
system.membus.trans_dist::WriteReq              15204                       # Transaction distribution
system.membus.trans_dist::WriteResp             15204                       # Transaction distribution
system.membus.trans_dist::SoftPFReq                25                       # Transaction distribution
system.membus.trans_dist::SoftPFResp               25                       # Transaction distribution
system.membus.trans_dist::MessageReq               23                       # Transaction distribution
system.membus.trans_dist::MessageResp              23                       # Transaction distribution
system.mmiofu.pwrStateResidencyTicks::UNDEFINED 346943407142000                       # Cumulative time (in ticks) in various power states
system.mmiofu_bridge.pwrStateResidencyTicks::UNDEFINED 346943407142000                       # Cumulative time (in ticks) in various power states
system.pc.behind_pci.pwrStateResidencyTicks::UNDEFINED 346943407142000                       # Cumulative time (in ticks) in various power states
system.pc.com_1.pwrStateResidencyTicks::UNDEFINED 346943407142000                       # Cumulative time (in ticks) in various power states
system.pc.fake_com_2.pwrStateResidencyTicks::UNDEFINED 346943407142000                       # Cumulative time (in ticks) in various power states
system.pc.fake_com_3.pwrStateResidencyTicks::UNDEFINED 346943407142000                       # Cumulative time (in ticks) in various power states
system.pc.fake_com_4.pwrStateResidencyTicks::UNDEFINED 346943407142000                       # Cumulative time (in ticks) in various power states
system.pc.fake_floppy.pwrStateResidencyTicks::UNDEFINED 346943407142000                       # Cumulative time (in ticks) in various power states
system.pc.i_dont_exist1.pwrStateResidencyTicks::UNDEFINED 346943407142000                       # Cumulative time (in ticks) in various power states
system.pc.i_dont_exist2.pwrStateResidencyTicks::UNDEFINED 346943407142000                       # Cumulative time (in ticks) in various power states
system.pc.pci_host.pwrStateResidencyTicks::UNDEFINED 346943407142000                       # Cumulative time (in ticks) in various power states
system.pc.south_bridge.cmos.pwrStateResidencyTicks::UNDEFINED 346943407142000                       # Cumulative time (in ticks) in various power states
system.pc.south_bridge.dma1.pwrStateResidencyTicks::UNDEFINED 346943407142000                       # Cumulative time (in ticks) in various power states
system.pc.south_bridge.ide.disks0.dma_read_bytes            0                       # Number of bytes transfered via DMA reads (not PRD).
system.pc.south_bridge.ide.disks0.dma_read_full_pages            0                       # Number of full page size DMA reads (not PRD).
system.pc.south_bridge.ide.disks0.dma_read_txs            0                       # Number of DMA read transactions (not PRD).
system.pc.south_bridge.ide.disks0.dma_write_bytes            0                       # Number of bytes transfered via DMA writes.
system.pc.south_bridge.ide.disks0.dma_write_full_pages            0                       # Number of full page size DMA writes.
system.pc.south_bridge.ide.disks0.dma_write_txs            0                       # Number of DMA write transactions.
system.pc.south_bridge.ide.disks1.dma_read_bytes            0                       # Number of bytes transfered via DMA reads (not PRD).
system.pc.south_bridge.ide.disks1.dma_read_full_pages            0                       # Number of full page size DMA reads (not PRD).
system.pc.south_bridge.ide.disks1.dma_read_txs            0                       # Number of DMA read transactions (not PRD).
system.pc.south_bridge.ide.disks1.dma_write_bytes            0                       # Number of bytes transfered via DMA writes.
system.pc.south_bridge.ide.disks1.dma_write_full_pages            0                       # Number of full page size DMA writes.
system.pc.south_bridge.ide.disks1.dma_write_txs            0                       # Number of DMA write transactions.
system.pc.south_bridge.ide.pwrStateResidencyTicks::UNDEFINED 346943407142000                       # Cumulative time (in ticks) in various power states
system.pc.south_bridge.io_apic.pwrStateResidencyTicks::UNDEFINED 346943407142000                       # Cumulative time (in ticks) in various power states
system.pc.south_bridge.keyboard.pwrStateResidencyTicks::UNDEFINED 346943407142000                       # Cumulative time (in ticks) in various power states
system.pc.south_bridge.pic1.pwrStateResidencyTicks::UNDEFINED 346943407142000                       # Cumulative time (in ticks) in various power states
system.pc.south_bridge.pic2.pwrStateResidencyTicks::UNDEFINED 346943407142000                       # Cumulative time (in ticks) in various power states
system.pc.south_bridge.pit.pwrStateResidencyTicks::UNDEFINED 346943407142000                       # Cumulative time (in ticks) in various power states
system.pc.south_bridge.speaker.pwrStateResidencyTicks::UNDEFINED 346943407142000                       # Cumulative time (in ticks) in various power states
system.pwrStateResidencyTicks::UNDEFINED 346943407142000                       # Cumulative time (in ticks) in various power states
system.switch_cpus.Branches                     18193                       # Number of branches fetched
system.switch_cpus.committedInsts               81493                       # Number of instructions committed
system.switch_cpus.committedOps                160934                       # Number of ops (including micro ops) committed
system.switch_cpus.dtb.pwrStateResidencyTicks::UNDEFINED 346943407142000                       # Cumulative time (in ticks) in various power states
system.switch_cpus.dtb.rdAccesses               22653                       # TLB accesses on read requests
system.switch_cpus.dtb.rdMisses                    20                       # TLB misses on read requests
system.switch_cpus.dtb.walker.pwrStateResidencyTicks::UNDEFINED 346943407142000                       # Cumulative time (in ticks) in various power states
system.switch_cpus.dtb.wrAccesses               15180                       # TLB accesses on write requests
system.switch_cpus.dtb.wrMisses                     3                       # TLB misses on write requests
system.switch_cpus.idle_fraction                    0                       # Percentage of idle cycles
system.switch_cpus.itb.pwrStateResidencyTicks::UNDEFINED 346943407142000                       # Cumulative time (in ticks) in various power states
system.switch_cpus.itb.rdAccesses                   0                       # TLB accesses on read requests
system.switch_cpus.itb.rdMisses                     0                       # TLB misses on read requests
system.switch_cpus.itb.walker.pwrStateResidencyTicks::UNDEFINED 346943407142000                       # Cumulative time (in ticks) in various power states
system.switch_cpus.itb.wrAccesses              105419                       # TLB accesses on write requests
system.switch_cpus.itb.wrMisses                    38                       # TLB misses on write requests
system.switch_cpus.kern.inst.arm                    0                       # number of arm instructions executed
system.switch_cpus.kern.inst.quiesce                0                       # number of quiesce instructions executed
system.switch_cpus.not_idle_fraction                1                       # Percentage of non-idle cycles
system.switch_cpus.numCycles                 15637772                       # number of cpu cycles simulated
system.switch_cpus.numWorkItemsCompleted            0                       # number of work items this cpu completed
system.switch_cpus.numWorkItemsStarted              0                       # number of work items this cpu started
system.switch_cpus.num_busy_cycles           15637772                       # Number of busy cycles
system.switch_cpus.num_cc_register_reads        79225                       # number of times the CC registers were read
system.switch_cpus.num_cc_register_writes        49694                       # number of times the CC registers were written
system.switch_cpus.num_conditional_control_insts        11395                       # number of instructions that are conditional controls
system.switch_cpus.num_fp_alu_accesses           3536                       # Number of float alu accesses
system.switch_cpus.num_fp_insts                  3536                       # number of float instructions
system.switch_cpus.num_fp_register_reads         4016                       # number of times the floating registers were read
system.switch_cpus.num_fp_register_writes         2403                       # number of times the floating registers were written
system.switch_cpus.num_func_calls                5552                       # number of times a function call or return occured
system.switch_cpus.num_idle_cycles                  0                       # Number of idle cycles
system.switch_cpus.num_int_alu_accesses        159196                       # Number of integer alu accesses
system.switch_cpus.num_int_insts               159196                       # number of integer instructions
system.switch_cpus.num_int_register_reads       314883                       # number of times the integer registers were read
system.switch_cpus.num_int_register_writes       125029                       # number of times the integer registers were written
system.switch_cpus.num_load_insts               22702                       # Number of load instructions
system.switch_cpus.num_mem_refs                 37905                       # number of memory refs
system.switch_cpus.num_store_insts              15203                       # Number of store instructions
system.switch_cpus.num_vec_alu_accesses             0                       # Number of vector alu accesses
system.switch_cpus.num_vec_insts                    0                       # number of vector instructions
system.switch_cpus.num_vec_register_reads            0                       # number of times the vector registers were read
system.switch_cpus.num_vec_register_writes            0                       # number of times the vector registers were written
system.switch_cpus.op_class::No_OpClass           558      0.35%      0.35% # Class of executed instruction
system.switch_cpus.op_class::IntAlu            120792     75.05%     75.40% # Class of executed instruction
system.switch_cpus.op_class::IntMult               74      0.05%     75.45% # Class of executed instruction
system.switch_cpus.op_class::IntDiv                21      0.01%     75.46% # Class of executed instruction
system.switch_cpus.op_class::FloatAdd               4      0.00%     75.46% # Class of executed instruction
system.switch_cpus.op_class::FloatCmp               0      0.00%     75.46% # Class of executed instruction
system.switch_cpus.op_class::FloatCvt               0      0.00%     75.46% # Class of executed instruction
system.switch_cpus.op_class::FloatMult              0      0.00%     75.46% # Class of executed instruction
system.switch_cpus.op_class::FloatMultAcc            0      0.00%     75.46% # Class of executed instruction
system.switch_cpus.op_class::FloatDiv               0      0.00%     75.46% # Class of executed instruction
system.switch_cpus.op_class::FloatMisc              0      0.00%     75.46% # Class of executed instruction
system.switch_cpus.op_class::FloatSqrt              0      0.00%     75.46% # Class of executed instruction
system.switch_cpus.op_class::SimdAdd                0      0.00%     75.46% # Class of executed instruction
system.switch_cpus.op_class::SimdAddAcc             0      0.00%     75.46% # Class of executed instruction
system.switch_cpus.op_class::SimdAlu               26      0.02%     75.48% # Class of executed instruction
system.switch_cpus.op_class::SimdCmp                0      0.00%     75.48% # Class of executed instruction
system.switch_cpus.op_class::SimdCvt               18      0.01%     75.49% # Class of executed instruction
system.switch_cpus.op_class::SimdMisc             641      0.40%     75.89% # Class of executed instruction
system.switch_cpus.op_class::SimdMult               0      0.00%     75.89% # Class of executed instruction
system.switch_cpus.op_class::SimdMultAcc            0      0.00%     75.89% # Class of executed instruction
system.switch_cpus.op_class::SimdShift              0      0.00%     75.89% # Class of executed instruction
system.switch_cpus.op_class::SimdShiftAcc            0      0.00%     75.89% # Class of executed instruction
system.switch_cpus.op_class::SimdSqrt               0      0.00%     75.89% # Class of executed instruction
system.switch_cpus.op_class::SimdFloatAdd            0      0.00%     75.89% # Class of executed instruction
system.switch_cpus.op_class::SimdFloatAlu            0      0.00%     75.89% # Class of executed instruction
system.switch_cpus.op_class::SimdFloatCmp            0      0.00%     75.89% # Class of executed instruction
system.switch_cpus.op_class::SimdFloatCvt          602      0.37%     76.26% # Class of executed instruction
system.switch_cpus.op_class::SimdFloatDiv          300      0.19%     76.45% # Class of executed instruction
system.switch_cpus.op_class::SimdFloatMisc            0      0.00%     76.45% # Class of executed instruction
system.switch_cpus.op_class::SimdFloatMult            0      0.00%     76.45% # Class of executed instruction
system.switch_cpus.op_class::SimdFloatMultAcc            0      0.00%     76.45% # Class of executed instruction
system.switch_cpus.op_class::SimdFloatSqrt            0      0.00%     76.45% # Class of executed instruction
system.switch_cpus.op_class::SimdAes                0      0.00%     76.45% # Class of executed instruction
system.switch_cpus.op_class::SimdAesMix             0      0.00%     76.45% # Class of executed instruction
system.switch_cpus.op_class::SimdSha1Hash            0      0.00%     76.45% # Class of executed instruction
system.switch_cpus.op_class::SimdSha1Hash2            0      0.00%     76.45% # Class of executed instruction
system.switch_cpus.op_class::SimdSha256Hash            0      0.00%     76.45% # Class of executed instruction
system.switch_cpus.op_class::SimdSha256Hash2            0      0.00%     76.45% # Class of executed instruction
system.switch_cpus.op_class::SimdShaSigma2            0      0.00%     76.45% # Class of executed instruction
system.switch_cpus.op_class::SimdShaSigma3            0      0.00%     76.45% # Class of executed instruction
system.switch_cpus.op_class::MemRead            21886     13.60%     90.05% # Class of executed instruction
system.switch_cpus.op_class::MemWrite           14086      8.75%     98.80% # Class of executed instruction
system.switch_cpus.op_class::FloatMemRead          816      0.51%     99.31% # Class of executed instruction
system.switch_cpus.op_class::FloatMemWrite         1117      0.69%    100.00% # Class of executed instruction
system.switch_cpus.op_class::IprAccess              0      0.00%    100.00% # Class of executed instruction
system.switch_cpus.op_class::InstPrefetch            0      0.00%    100.00% # Class of executed instruction
system.switch_cpus.op_class::total             160941                       # Class of executed instruction
system.switch_cpus.pwrStateResidencyTicks::ON 649057878000                       # Cumulative time (in ticks) in various power states
system.voltage_domain.voltage                       1                       # Voltage in Volts

---------- End Simulation Statistics   ----------

---------- Begin Simulation Statistics ----------
final_tick                               346951122685000                       # Number of ticks from beginning of simulation (restored from checkpoints and never reset)
host_inst_rate                               17727773                       # Simulator instruction rate (inst/s)
host_mem_usage                                 963536                       # Number of bytes of host memory used
host_op_rate                                 32834979                       # Simulator op (including micro ops) rate (op/s)
host_seconds                                     0.43                       # Real time elapsed on the host
host_tick_rate                            18136912368                       # Simulator tick rate (ticks/s)
sim_freq                                 1000000000000                       # Frequency of simulated ticks
sim_insts                                     7540217                       # Number of instructions simulated
sim_ops                                      13967675                       # Number of ops (including micro ops) simulated
sim_seconds                                  0.007716                       # Number of seconds simulated
sim_ticks                                  7715543000                       # Number of ticks simulated
system.apicbridge.pwrStateResidencyTicks::UNDEFINED   7715543000                       # Cumulative time (in ticks) in various power states
[...]
system.membus.pkt_count_system.cpu.dtb.walker.port::total            8                       # Packet count per connected master and slave (bytes)
system.membus.pkt_count::total                     90                       # Packet count per connected master and slave (bytes)
system.membus.pkt_size_system.cpu.icache_port::system.mem_ctrls.port          256                       # Cumulative packet size per connected master and slave (bytes)
system.membus.pkt_size_system.cpu.icache_port::total          256                       # Cumulative packet size per connected master and slave (bytes)
system.membus.pkt_size_system.cpu.dcache_port::system.mem_ctrls.port           64                       # Cumulative packet size per connected master and slave (bytes)
system.membus.pkt_size_system.cpu.dcache_port::total           64                       # Cumulative packet size per connected master and slave (bytes)
system.membus.pkt_size_system.cpu.dtb.walker.port::system.mem_ctrls.port           32                       # Cumulative packet size per connected master and slave (bytes)
system.membus.pkt_size_system.cpu.dtb.walker.port::total           32                       # Cumulative packet size per connected master and slave (bytes)
system.membus.pkt_size::total                     352                       # Cumulative packet size per connected master and slave (bytes)
system.membus.pwrStateResidencyTicks::UNDEFINED      2799000                       # Cumulative time (in ticks) in various power states
system.membus.reqLayer4.occupancy               47500                       # Layer occupancy (ticks)
system.membus.reqLayer4.utilization               1.7                       # Layer utilization (%)
system.membus.respLayer3.occupancy              72500                       # Layer occupancy (ticks)
system.membus.respLayer3.utilization              2.6                       # Layer utilization (%)
system.membus.respLayer4.occupancy              18000                       # Layer occupancy (ticks)
system.membus.respLayer4.utilization              0.6                       # Layer utilization (%)
system.membus.respLayer6.occupancy              10750                       # Layer occupancy (ticks)
system.membus.respLayer6.utilization              0.4                       # Layer utilization (%)
system.membus.snoopTraffic                          0                       # Total snoop traffic (bytes)
system.membus.snoop_fanout::samples                45                       # Request fanout histogram
system.membus.snoop_fanout::mean                    0                       # Request fanout histogram
system.membus.snoop_fanout::stdev                   0                       # Request fanout histogram
system.membus.snoop_fanout::underflows              0      0.00%      0.00% # Request fanout histogram
system.membus.snoop_fanout::0                      45    100.00%    100.00% # Request fanout histogram
system.membus.snoop_fanout::1                       0      0.00%    100.00% # Request fanout histogram
system.membus.snoop_fanout::overflows               0      0.00%    100.00% # Request fanout histogram
system.membus.snoop_fanout::min_value               0                       # Request fanout histogram
system.membus.snoop_fanout::max_value               0                       # Request fanout histogram
system.membus.snoop_fanout::total                  45                       # Request fanout histogram
system.membus.snoop_filter.hit_multi_requests            0                       # Number of requests hitting in the snoop filter with multiple (>1) holders of the requested data.
system.membus.snoop_filter.hit_multi_snoops            0                       # Number of snoops hitting in the snoop filter with multiple (>1) holders of the requested data.
system.membus.snoop_filter.hit_single_requests            0                       # Number of requests hitting in the snoop filter with a single holder of the requested data.
system.membus.snoop_filter.hit_single_snoops            0                       # Number of snoops hitting in the snoop filter with a single holder of the requested data.
system.membus.snoop_filter.tot_requests             0                       # Total number of requests made to the snoop filter.
system.membus.snoop_filter.tot_snoops               0                       # Total number of snoops made to the snoop filter.
system.membus.snoops                                0                       # Total snoops (count)
system.membus.trans_dist::ReadReq                  43                       # Transaction distribution
system.membus.trans_dist::ReadResp                 43                       # Transaction distribution
system.membus.trans_dist::WriteReq                  2                       # Transaction distribution
system.membus.trans_dist::WriteResp                 2                       # Transaction distribution
system.mmiofu.pwrStateResidencyTicks::UNDEFINED      2799000                       # Cumulative time (in ticks) in various power states
system.mmiofu_bridge.pwrStateResidencyTicks::UNDEFINED      2799000                       # Cumulative time (in ticks) in various power states
system.pc.behind_pci.pwrStateResidencyTicks::UNDEFINED      2799000                       # Cumulative time (in ticks) in various power states
system.pc.com_1.pwrStateResidencyTicks::UNDEFINED      2799000                       # Cumulative time (in ticks) in various power states
system.pc.fake_com_2.pwrStateResidencyTicks::UNDEFINED      2799000                       # Cumulative time (in ticks) in various power states
system.pc.fake_com_3.pwrStateResidencyTicks::UNDEFINED      2799000                       # Cumulative time (in ticks) in various power states
system.pc.fake_com_4.pwrStateResidencyTicks::UNDEFINED      2799000                       # Cumulative time (in ticks) in various power states
system.pc.fake_floppy.pwrStateResidencyTicks::UNDEFINED      2799000                       # Cumulative time (in ticks) in various power states
system.pc.i_dont_exist1.pwrStateResidencyTicks::UNDEFINED      2799000                       # Cumulative time (in ticks) in various power states
system.pc.i_dont_exist2.pwrStateResidencyTicks::UNDEFINED      2799000                       # Cumulative time (in ticks) in various power states
system.pc.pci_host.pwrStateResidencyTicks::UNDEFINED      2799000                       # Cumulative time (in ticks) in various power states
system.pc.south_bridge.cmos.pwrStateResidencyTicks::UNDEFINED      2799000                       # Cumulative time (in ticks) in various power states
system.pc.south_bridge.dma1.pwrStateResidencyTicks::UNDEFINED      2799000                       # Cumulative time (in ticks) in various power states
system.pc.south_bridge.ide.disks0.dma_read_bytes            0                       # Number of bytes transfered via DMA reads (not PRD).
system.pc.south_bridge.ide.disks0.dma_read_full_pages            0                       # Number of full page size DMA reads (not PRD).
system.pc.south_bridge.ide.disks0.dma_read_txs            0                       # Number of DMA read transactions (not PRD).
system.pc.south_bridge.ide.disks0.dma_write_bytes            0                       # Number of bytes transfered via DMA writes.
system.pc.south_bridge.ide.disks0.dma_write_full_pages            0                       # Number of full page size DMA writes.
system.pc.south_bridge.ide.disks0.dma_write_txs            0                       # Number of DMA write transactions.
system.pc.south_bridge.ide.disks1.dma_read_bytes            0                       # Number of bytes transfered via DMA reads (not PRD).
system.pc.south_bridge.ide.disks1.dma_read_full_pages            0                       # Number of full page size DMA reads (not PRD).
system.pc.south_bridge.ide.disks1.dma_read_txs            0                       # Number of DMA read transactions (not PRD).
system.pc.south_bridge.ide.disks1.dma_write_bytes            0                       # Number of bytes transfered via DMA writes.
system.pc.south_bridge.ide.disks1.dma_write_full_pages            0                       # Number of full page size DMA writes.
system.pc.south_bridge.ide.disks1.dma_write_txs            0                       # Number of DMA write transactions.
system.pc.south_bridge.ide.pwrStateResidencyTicks::UNDEFINED      2799000                       # Cumulative time (in ticks) in various power states
system.pc.south_bridge.io_apic.pwrStateResidencyTicks::UNDEFINED      2799000                       # Cumulative time (in ticks) in various power states
system.pc.south_bridge.keyboard.pwrStateResidencyTicks::UNDEFINED      2799000                       # Cumulative time (in ticks) in various power states
system.pc.south_bridge.pic1.pwrStateResidencyTicks::UNDEFINED      2799000                       # Cumulative time (in ticks) in various power states
system.pc.south_bridge.pic2.pwrStateResidencyTicks::UNDEFINED      2799000                       # Cumulative time (in ticks) in various power states
system.pc.south_bridge.pit.pwrStateResidencyTicks::UNDEFINED      2799000                       # Cumulative time (in ticks) in various power states
system.pc.south_bridge.speaker.pwrStateResidencyTicks::UNDEFINED      2799000                       # Cumulative time (in ticks) in various power states
system.pwrStateResidencyTicks::UNDEFINED      2799000                       # Cumulative time (in ticks) in various power states
system.switch_cpus.Branches                         4                       # Number of branches fetched
system.switch_cpus.committedInsts                  20                       # Number of instructions committed
system.switch_cpus.committedOps                    36                       # Number of ops (including micro ops) committed
system.switch_cpus.dtb.pwrStateResidencyTicks::UNDEFINED      2799000                       # Cumulative time (in ticks) in various power states
system.switch_cpus.dtb.rdAccesses                   9                       # TLB accesses on read requests
system.switch_cpus.dtb.rdMisses                     1                       # TLB misses on read requests
system.switch_cpus.dtb.walker.pwrStateResidencyTicks::UNDEFINED      2799000                       # Cumulative time (in ticks) in various power states
system.switch_cpus.dtb.wrAccesses                   2                       # TLB accesses on write requests
system.switch_cpus.dtb.wrMisses                     0                       # TLB misses on write requests
system.switch_cpus.idle_fraction                    0                       # Percentage of idle cycles
system.switch_cpus.itb.pwrStateResidencyTicks::UNDEFINED      2799000                       # Cumulative time (in ticks) in various power states
system.switch_cpus.itb.rdAccesses                   0                       # TLB accesses on read requests
system.switch_cpus.itb.rdMisses                     0                       # TLB misses on read requests
system.switch_cpus.itb.walker.pwrStateResidencyTicks::UNDEFINED      2799000                       # Cumulative time (in ticks) in various power states
system.switch_cpus.itb.wrAccesses                  32                       # TLB accesses on write requests
system.switch_cpus.itb.wrMisses                     0                       # TLB misses on write requests
system.switch_cpus.kern.inst.arm                    0                       # number of arm instructions executed
system.switch_cpus.kern.inst.quiesce                0                       # number of quiesce instructions executed
system.switch_cpus.not_idle_fraction                1                       # Percentage of non-idle cycles
system.switch_cpus.numCycles                     4962                       # number of cpu cycles simulated
system.switch_cpus.numWorkItemsCompleted            0                       # number of work items this cpu completed
system.switch_cpus.numWorkItemsStarted              0                       # number of work items this cpu started
system.switch_cpus.num_busy_cycles               4962                       # Number of busy cycles
system.switch_cpus.num_cc_register_reads            7                       # number of times the CC registers were read
system.switch_cpus.num_cc_register_writes            6                       # number of times the CC registers were written
system.switch_cpus.num_conditional_control_insts            1                       # number of instructions that are conditional controls
system.switch_cpus.num_fp_alu_accesses              8                       # Number of float alu accesses
system.switch_cpus.num_fp_insts                     8                       # number of float instructions
system.switch_cpus.num_fp_register_reads           11                       # number of times the floating registers were read
system.switch_cpus.num_fp_register_writes            7                       # number of times the floating registers were written
system.switch_cpus.num_func_calls                   2                       # number of times a function call or return occured
system.switch_cpus.num_idle_cycles                  0                       # Number of idle cycles
system.switch_cpus.num_int_alu_accesses            32                       # Number of integer alu accesses
system.switch_cpus.num_int_insts                   32                       # number of integer instructions
system.switch_cpus.num_int_register_reads           63                       # number of times the integer registers were read
system.switch_cpus.num_int_register_writes           23                       # number of times the integer registers were written
system.switch_cpus.num_load_insts                   8                       # Number of load instructions
system.switch_cpus.num_mem_refs                    10                       # number of memory refs
system.switch_cpus.num_store_insts                  2                       # Number of store instructions
system.switch_cpus.num_vec_alu_accesses             0                       # Number of vector alu accesses
system.switch_cpus.num_vec_insts                    0                       # number of vector instructions
system.switch_cpus.num_vec_register_reads            0                       # number of times the vector registers were read
system.switch_cpus.num_vec_register_writes            0                       # number of times the vector registers were written
system.switch_cpus.op_class::No_OpClass             0      0.00%      0.00% # Class of executed instruction
system.switch_cpus.op_class::IntAlu                21     58.33%     58.33% # Class of executed instruction
system.switch_cpus.op_class::IntMult                0      0.00%     58.33% # Class of executed instruction
system.switch_cpus.op_class::IntDiv                 0      0.00%     58.33% # Class of executed instruction
system.switch_cpus.op_class::FloatAdd               0      0.00%     58.33% # Class of executed instruction
system.switch_cpus.op_class::FloatCmp               0      0.00%     58.33% # Class of executed instruction
system.switch_cpus.op_class::FloatCvt               0      0.00%     58.33% # Class of executed instruction
system.switch_cpus.op_class::FloatMult              0      0.00%     58.33% # Class of executed instruction
system.switch_cpus.op_class::FloatMultAcc            0      0.00%     58.33% # Class of executed instruction
system.switch_cpus.op_class::FloatDiv               0      0.00%     58.33% # Class of executed instruction
system.switch_cpus.op_class::FloatMisc              0      0.00%     58.33% # Class of executed instruction
system.switch_cpus.op_class::FloatSqrt              0      0.00%     58.33% # Class of executed instruction
system.switch_cpus.op_class::SimdAdd                0      0.00%     58.33% # Class of executed instruction
system.switch_cpus.op_class::SimdAddAcc             0      0.00%     58.33% # Class of executed instruction
system.switch_cpus.op_class::SimdAlu                0      0.00%     58.33% # Class of executed instruction
system.switch_cpus.op_class::SimdCmp                0      0.00%     58.33% # Class of executed instruction
system.switch_cpus.op_class::SimdCvt                0      0.00%     58.33% # Class of executed instruction
system.switch_cpus.op_class::SimdMisc               1      2.78%     61.11% # Class of executed instruction
system.switch_cpus.op_class::SimdMult               0      0.00%     61.11% # Class of executed instruction
system.switch_cpus.op_class::SimdMultAcc            0      0.00%     61.11% # Class of executed instruction
system.switch_cpus.op_class::SimdShift              0      0.00%     61.11% # Class of executed instruction
system.switch_cpus.op_class::SimdShiftAcc            0      0.00%     61.11% # Class of executed instruction
system.switch_cpus.op_class::SimdSqrt               0      0.00%     61.11% # Class of executed instruction
system.switch_cpus.op_class::SimdFloatAdd            1      2.78%     63.89% # Class of executed instruction
system.switch_cpus.op_class::SimdFloatAlu            0      0.00%     63.89% # Class of executed instruction
system.switch_cpus.op_class::SimdFloatCmp            0      0.00%     63.89% # Class of executed instruction
system.switch_cpus.op_class::SimdFloatCvt            2      5.56%     69.44% # Class of executed instruction
system.switch_cpus.op_class::SimdFloatDiv            0      0.00%     69.44% # Class of executed instruction
system.switch_cpus.op_class::SimdFloatMisc            0      0.00%     69.44% # Class of executed instruction
system.switch_cpus.op_class::SimdFloatMult            1      2.78%     72.22% # Class of executed instruction
system.switch_cpus.op_class::SimdFloatMultAcc            0      0.00%     72.22% # Class of executed instruction
system.switch_cpus.op_class::SimdFloatSqrt            0      0.00%     72.22% # Class of executed instruction
system.switch_cpus.op_class::SimdAes                0      0.00%     72.22% # Class of executed instruction
system.switch_cpus.op_class::SimdAesMix             0      0.00%     72.22% # Class of executed instruction
system.switch_cpus.op_class::SimdSha1Hash            0      0.00%     72.22% # Class of executed instruction
system.switch_cpus.op_class::SimdSha1Hash2            0      0.00%     72.22% # Class of executed instruction
system.switch_cpus.op_class::SimdSha256Hash            0      0.00%     72.22% # Class of executed instruction
system.switch_cpus.op_class::SimdSha256Hash2            0      0.00%     72.22% # Class of executed instruction
system.switch_cpus.op_class::SimdShaSigma2            0      0.00%     72.22% # Class of executed instruction
system.switch_cpus.op_class::SimdShaSigma3            0      0.00%     72.22% # Class of executed instruction
system.switch_cpus.op_class::MemRead                5     13.89%     86.11% # Class of executed instruction
system.switch_cpus.op_class::MemWrite               2      5.56%     91.67% # Class of executed instruction
system.switch_cpus.op_class::FloatMemRead            3      8.33%    100.00% # Class of executed instruction
system.switch_cpus.op_class::FloatMemWrite            0      0.00%    100.00% # Class of executed instruction
system.switch_cpus.op_class::IprAccess              0      0.00%    100.00% # Class of executed instruction
system.switch_cpus.op_class::InstPrefetch            0      0.00%    100.00% # Class of executed instruction
system.switch_cpus.op_class::total                 36                       # Class of executed instruction
system.switch_cpus.pwrStateResidencyTicks::ON      2799000                       # Cumulative time (in ticks) in various power states
system.voltage_domain.voltage                       1                       # Voltage in Volts

---------- End Simulation Statistics   ----------
