
---------- Begin Simulation Statistics ----------
final_tick                               353619289815000                       # Number of ticks from beginning of simulation (restored from checkpoints and never reset)
host_inst_rate                              187017565                       # Simulator instruction rate (inst/s)
host_mem_usage                                 993232                       # Number of bytes of host memory used
host_op_rate                                343496915                       # Simulator op (including micro ops) rate (op/s)
host_seconds                                     0.42                       # Real time elapsed on the host
host_tick_rate                            18264611466                       # Simulator tick rate (ticks/s)
sim_freq                                 1000000000000                       # Frequency of simulated ticks
sim_insts                                    78029972                       # Number of instructions simulated
sim_ops                                     143349110                       # Number of ops (including micro ops) simulated
sim_seconds                                  0.007623                       # Number of seconds simulated
sim_ticks                                  7622524000                       # Number of ticks simulated
system.apicbridge.pwrStateResidencyTicks::UNDEFINED 353619289815000                       # Cumulative time (in ticks) in various power states
system.bridge.pwrStateResidencyTicks::UNDEFINED 353619289815000                       # Cumulative time (in ticks) in various power states
system.clk_domain.clock                          1000                       # Clock period in ticks
system.cpu.apic_clk_domain.clock                 8000                       # Clock period in ticks
system.cpu.committedInsts                           0                       # Number of instructions committed
system.cpu.committedOps                             0                       # Number of ops (including micro ops) committed
system.cpu.dtb.pwrStateResidencyTicks::UNDEFINED 353619289815000                       # Cumulative time (in ticks) in various power states
system.cpu.dtb.rdAccesses                           0                       # TLB accesses on read requests
system.cpu.dtb.rdMisses                             0                       # TLB misses on read requests
system.cpu.dtb.walker.pwrStateResidencyTicks::UNDEFINED 353619289815000                       # Cumulative time (in ticks) in various power states
system.cpu.dtb.wrAccesses                           0                       # TLB accesses on write requests
system.cpu.dtb.wrMisses                             0                       # TLB misses on write requests
system.cpu.idle_fraction                            0                       # Percentage of idle cycles
system.cpu.interrupts.pwrStateResidencyTicks::UNDEFINED 353619289815000                       # Cumulative time (in ticks) in various power states
system.cpu.itb.pwrStateResidencyTicks::UNDEFINED 353619289815000                       # Cumulative time (in ticks) in various power states
system.cpu.itb.rdAccesses                           0                       # TLB accesses on read requests
system.cpu.itb.rdMisses                             0                       # TLB misses on read requests
system.cpu.itb.walker.pwrStateResidencyTicks::UNDEFINED 353619289815000                       # Cumulative time (in ticks) in various power states
system.cpu.itb.wrAccesses                           0                       # TLB accesses on write requests
system.cpu.itb.wrMisses                             0                       # TLB misses on write requests
system.cpu.kern.inst.arm                            0                       # number of arm instructions executed
system.cpu.kern.inst.quiesce                        0                       # number of quiesce instructions executed
system.cpu.not_idle_fraction                        1                       # Percentage of non-idle cycles
system.cpu.numCycles                                0                       # number of cpu cycles simulated
system.cpu.numWorkItemsCompleted                    0                       # number of work items this cpu completed
system.cpu.numWorkItemsStarted                      0                       # number of work items this cpu started
system.cpu.num_busy_cycles                          0                       # Number of busy cycles
system.cpu.num_conditional_control_insts            0                       # number of instructions that are conditional controls
system.cpu.num_fp_alu_accesses                      0                       # Number of float alu accesses
system.cpu.num_fp_insts                             0                       # number of float instructions
system.cpu.num_fp_register_reads                    0                       # number of times the floating registers were read
system.cpu.num_fp_register_writes                   0                       # number of times the floating registers were written
system.cpu.num_func_calls                           0                       # number of times a function call or return occured
system.cpu.num_idle_cycles                          0                       # Number of idle cycles
system.cpu.num_int_alu_accesses                     0                       # Number of integer alu accesses
system.cpu.num_int_insts                            0                       # number of integer instructions
system.cpu.num_int_register_reads                   0                       # number of times the integer registers were read
system.cpu.num_int_register_writes                  0                       # number of times the integer registers were written
system.cpu.num_load_insts                           0                       # Number of load instructions
system.cpu.num_mem_refs                             0                       # number of memory refs
system.cpu.num_store_insts                          0                       # Number of store instructions
system.cpu.num_vec_alu_accesses                     0                       # Number of vector alu accesses
system.cpu.num_vec_insts                            0                       # number of vector instructions
system.cpu.num_vec_register_reads                   0                       # number of times the vector registers were read
system.cpu.num_vec_register_writes                  0                       # number of times the vector registers were written
system.cpu.op_class::No_OpClass                     0                       # Class of executed instruction
system.cpu.op_class::IntAlu                         0                       # Class of executed instruction
system.cpu.op_class::IntMult                        0                       # Class of executed instruction
system.cpu.op_class::IntDiv                         0                       # Class of executed instruction
system.cpu.op_class::FloatAdd                       0                       # Class of executed instruction
system.cpu.op_class::FloatCmp                       0                       # Class of executed instruction
system.cpu.op_class::FloatCvt                       0                       # Class of executed instruction
system.cpu.op_class::FloatMult                      0                       # Class of executed instruction
system.cpu.op_class::FloatMultAcc                   0                       # Class of executed instruction
system.cpu.op_class::FloatDiv                       0                       # Class of executed instruction
system.cpu.op_class::FloatMisc                      0                       # Class of executed instruction
system.cpu.op_class::FloatSqrt                      0                       # Class of executed instruction
system.cpu.op_class::SimdAdd                        0                       # Class of executed instruction
system.cpu.op_class::SimdAddAcc                     0                       # Class of executed instruction
system.cpu.op_class::SimdAlu                        0                       # Class of executed instruction
system.cpu.op_class::SimdCmp                        0                       # Class of executed instruction
system.cpu.op_class::SimdCvt                        0                       # Class of executed instruction
system.cpu.op_class::SimdMisc                       0                       # Class of executed instruction
system.cpu.op_class::SimdMult                       0                       # Class of executed instruction
system.cpu.op_class::SimdMultAcc                    0                       # Class of executed instruction
system.cpu.op_class::SimdShift                      0                       # Class of executed instruction
system.cpu.op_class::SimdShiftAcc                   0                       # Class of executed instruction
system.cpu.op_class::SimdSqrt                       0                       # Class of executed instruction
system.cpu.op_class::SimdFloatAdd                   0                       # Class of executed instruction
system.cpu.op_class::SimdFloatAlu                   0                       # Class of executed instruction
system.cpu.op_class::SimdFloatCmp                   0                       # Class of executed instruction
system.cpu.op_class::SimdFloatCvt                   0                       # Class of executed instruction
system.cpu.op_class::SimdFloatDiv                   0                       # Class of executed instruction
system.cpu.op_class::SimdFloatMisc                  0                       # Class of executed instruction
system.cpu.op_class::SimdFloatMult                  0                       # Class of executed instruction
system.cpu.op_class::SimdFloatMultAcc               0                       # Class of executed instruction
system.cpu.op_class::SimdFloatSqrt                  0                       # Class of executed instruction
system.cpu.op_class::SimdAes                        0                       # Class of executed instruction
system.cpu.op_class::SimdAesMix                     0                       # Class of executed instruction
system.cpu.op_class::SimdSha1Hash                   0                       # Class of executed instruction
system.cpu.op_class::SimdSha1Hash2                  0                       # Class of executed instruction
system.cpu.op_class::SimdSha256Hash                 0                       # Class of executed instruction
system.cpu.op_class::SimdSha256Hash2                0                       # Class of executed instruction
system.cpu.op_class::SimdShaSigma2                  0                       # Class of executed instruction
system.cpu.op_class::SimdShaSigma3                  0                       # Class of executed instruction
system.cpu.op_class::MemRead                        0                       # Class of executed instruction
system.cpu.op_class::MemWrite                       0                       # Class of executed instruction
system.cpu.op_class::FloatMemRead                   0                       # Class of executed instruction
system.cpu.op_class::FloatMemWrite                  0                       # Class of executed instruction
system.cpu.op_class::IprAccess                      0                       # Class of executed instruction
system.cpu.op_class::InstPrefetch                   0                       # Class of executed instruction
system.cpu.op_class::total                          0                       # Class of executed instruction
system.cpu.pwrStateResidencyTicks::OFF   8488149899500                       # Cumulative time (in ticks) in various power states
system.cpu_clk_domain.clock                       500                       # Clock period in ticks
system.cpu_voltage_domain.voltage                   1                       # Voltage in Volts
system.iobridge.pwrStateResidencyTicks::UNDEFINED 353619289815000                       # Cumulative time (in ticks) in various power states
system.iobus.pkt_count_system.bridge.master::system.pc.com_1.pio          184                       # Packet count per connected master and slave (bytes)
system.iobus.pkt_count_system.bridge.master::total          184                       # Packet count per connected master and slave (bytes)
system.iobus.pkt_count_system.pc.south_bridge.io_apic.int_master::system.apicbridge.slave           46                       # Packet count per connected master and slave (bytes)
system.iobus.pkt_count_system.pc.south_bridge.io_apic.int_master::total           46                       # Packet count per connected master and slave (bytes)
system.iobus.pkt_count::total                     230                       # Packet count per connected master and slave (bytes)
system.iobus.pkt_size_system.bridge.master::system.pc.com_1.pio           92                       # Cumulative packet size per connected master and slave (bytes)
system.iobus.pkt_size_system.bridge.master::total           92                       # Cumulative packet size per connected master and slave (bytes)
system.iobus.pkt_size_system.pc.south_bridge.io_apic.int_master::system.apicbridge.slave           92                       # Cumulative packet size per connected master and slave (bytes)
system.iobus.pkt_size_system.pc.south_bridge.io_apic.int_master::total           92                       # Cumulative packet size per connected master and slave (bytes)
system.iobus.pkt_size::total                      184                       # Cumulative packet size per connected master and slave (bytes)
system.iobus.pwrStateResidencyTicks::UNDEFINED 353619289815000                       # Cumulative time (in ticks) in various power states
system.iobus.reqLayer0.occupancy                46000                       # Layer occupancy (ticks)
system.iobus.reqLayer0.utilization                0.0                       # Layer utilization (%)
system.iobus.reqLayer13.occupancy              119000                       # Layer occupancy (ticks)
system.iobus.reqLayer13.utilization               0.0                       # Layer utilization (%)
system.iobus.respLayer0.occupancy              157000                       # Layer occupancy (ticks)
system.iobus.respLayer0.utilization               0.0                       # Layer utilization (%)
system.iobus.respLayer3.occupancy               23000                       # Layer occupancy (ticks)
system.iobus.respLayer3.utilization               0.0                       # Layer utilization (%)
system.iobus.trans_dist::ReadReq                   65                       # Transaction distribution
system.iobus.trans_dist::ReadResp                  65                       # Transaction distribution
system.iobus.trans_dist::WriteReq                  27                       # Transaction distribution
system.iobus.trans_dist::WriteResp                 27                       # Transaction distribution
system.iobus.trans_dist::MessageReq                23                       # Transaction distribution
system.iobus.trans_dist::MessageResp               23                       # Transaction distribution
system.mem_ctrls.avgBusLat                    5000.00                       # Average bus latency per DRAM burst
system.mem_ctrls.avgGap                      55022.47                       # Average gap between requests
system.mem_ctrls.avgMemAccLat                28892.73                       # Average memory access latency per DRAM burst
system.mem_ctrls.avgPriority_.switch_cpus.dtb.walker::samples       115.00                       # Average QoS priority value for accepted requests
system.mem_ctrls.avgPriority_.switch_cpus.itb.walker::samples       109.00                       # Average QoS priority value for accepted requests
system.mem_ctrls.avgPriority_.switch_cpus.inst::samples    105134.00                       # Average QoS priority value for accepted requests
system.mem_ctrls.avgPriority_.switch_cpus.data::samples     18535.00                       # Average QoS priority value for accepted requests
system.mem_ctrls.avgQLat                     10142.73                       # Average queueing delay per DRAM burst
system.mem_ctrls.avgRdBW                      1032.61                       # Average DRAM read bandwidth in MiByte/s
system.mem_ctrls.avgRdBWSys                    128.26                       # Average system read bandwidth in MiByte/s
system.mem_ctrls.avgRdQLen                       1.00                       # Average read queue length when enqueuing
system.mem_ctrls.avgWrBW                         7.68                       # Average achieved write bandwidth in MiByte/s
system.mem_ctrls.avgWrBWSys                     11.46                       # Average system write bandwidth in MiByte/s
system.mem_ctrls.avgWrQLen                      26.85                       # Average write queue length when enqueuing
system.mem_ctrls.busUtil                         8.13                       # Data bus utilization in percentage
system.mem_ctrls.busUtilRead                     8.07                       # Data bus utilization in percentage for reads
system.mem_ctrls.busUtilWrite                    0.06                       # Data bus utilization in percentage for writes
system.mem_ctrls.bw_inst_read::.switch_cpus.inst    110340354                       # Instruction read bandwidth from this memory (bytes/s)
system.mem_ctrls.bw_inst_read::total        110340354                       # Instruction read bandwidth from this memory (bytes/s)
system.mem_ctrls.bw_read::.switch_cpus.dtb.walker       124893                       # Total read bandwidth from this memory (bytes/s)
system.mem_ctrls.bw_read::.switch_cpus.itb.walker       125943                       # Total read bandwidth from this memory (bytes/s)
system.mem_ctrls.bw_read::.switch_cpus.inst    110340354                       # Total read bandwidth from this memory (bytes/s)
system.mem_ctrls.bw_read::.switch_cpus.data     17667114                       # Total read bandwidth from this memory (bytes/s)
system.mem_ctrls.bw_read::total             128258304                       # Total read bandwidth from this memory (bytes/s)
system.mem_ctrls.bw_total::.switch_cpus.dtb.walker       124893                       # Total bandwidth to/from this memory (bytes/s)
system.mem_ctrls.bw_total::.switch_cpus.itb.walker       125943                       # Total bandwidth to/from this memory (bytes/s)
system.mem_ctrls.bw_total::.switch_cpus.inst    110340354                       # Total bandwidth to/from this memory (bytes/s)
system.mem_ctrls.bw_total::.switch_cpus.data     29130640                       # Total bandwidth to/from this memory (bytes/s)
system.mem_ctrls.bw_total::total            139721830                       # Total bandwidth to/from this memory (bytes/s)
system.mem_ctrls.bw_write::.switch_cpus.data     11463526                       # Write bandwidth from this memory (bytes/s)
system.mem_ctrls.bw_write::total             11463526                       # Write bandwidth from this memory (bytes/s)
system.mem_ctrls.bytesPerActivate::samples        14876                       # Bytes accessed per row activation
system.mem_ctrls.bytesPerActivate::mean    533.007798                       # Bytes accessed per row activation
system.mem_ctrls.bytesPerActivate::gmean   333.718960                       # Bytes accessed per row activation
system.mem_ctrls.bytesPerActivate::stdev   402.160393                       # Bytes accessed per row activation
system.mem_ctrls.bytesPerActivate::0-127         3233     21.73%     21.73% # Bytes accessed per row activation
system.mem_ctrls.bytesPerActivate::128-255         2244     15.08%     36.82% # Bytes accessed per row activation
system.mem_ctrls.bytesPerActivate::256-383         1230      8.27%     45.09% # Bytes accessed per row activation
system.mem_ctrls.bytesPerActivate::384-511          843      5.67%     50.75% # Bytes accessed per row activation
system.mem_ctrls.bytesPerActivate::512-639          694      4.67%     55.42% # Bytes accessed per row activation
system.mem_ctrls.bytesPerActivate::640-767          730      4.91%     60.33% # Bytes accessed per row activation
system.mem_ctrls.bytesPerActivate::768-895          703      4.73%     65.05% # Bytes accessed per row activation
system.mem_ctrls.bytesPerActivate::896-1023          523      3.52%     68.57% # Bytes accessed per row activation
system.mem_ctrls.bytesPerActivate::1024-1151         4676     31.43%    100.00% # Bytes accessed per row activation
system.mem_ctrls.bytesPerActivate::total        14876                       # Bytes accessed per row activation
system.mem_ctrls.bytesReadDRAM                7871104                       # Total number of bytes read from DRAM
system.mem_ctrls.bytesReadSys                  977652                       # Total read bytes from the system interface side
system.mem_ctrls.bytesReadWrQ                  195008                       # Total number of bytes read from write queue
system.mem_ctrls.bytesWritten                   58560                       # Total number of bytes written to DRAM
system.mem_ctrls.bytesWrittenSys                87381                       # Total written bytes from the system interface side
system.mem_ctrls.bytes_inst_read::.switch_cpus.inst       841072                       # Number of instructions bytes read from this memory
system.mem_ctrls.bytes_inst_read::total        841072                       # Number of instructions bytes read from this memory
system.mem_ctrls.bytes_read::.switch_cpus.dtb.walker          952                       # Number of bytes read from this memory
system.mem_ctrls.bytes_read::.switch_cpus.itb.walker          960                       # Number of bytes read from this memory
system.mem_ctrls.bytes_read::.switch_cpus.inst       841072                       # Number of bytes read from this memory
system.mem_ctrls.bytes_read::.switch_cpus.data       134668                       # Number of bytes read from this memory
system.mem_ctrls.bytes_read::total             977652                       # Number of bytes read from this memory
system.mem_ctrls.bytes_written::.switch_cpus.data        87381                       # Number of bytes written to this memory
system.mem_ctrls.bytes_written::total           87381                       # Number of bytes written to this memory
system.mem_ctrls.masterReadAccesses::.switch_cpus.dtb.walker          119                       # Per-master read serviced memory accesses
system.mem_ctrls.masterReadAccesses::.switch_cpus.itb.walker          120                       # Per-master read serviced memory accesses
system.mem_ctrls.masterReadAccesses::.switch_cpus.inst       105134                       # Per-master read serviced memory accesses
system.mem_ctrls.masterReadAccesses::.switch_cpus.data        20660                       # Per-master read serviced memory accesses
system.mem_ctrls.masterReadAvgLat::.switch_cpus.dtb.walker     44207.98                       # Per-master read average memory access latency
system.mem_ctrls.masterReadAvgLat::.switch_cpus.itb.walker     44529.17                       # Per-master read average memory access latency
system.mem_ctrls.masterReadAvgLat::.switch_cpus.inst     28069.08                       # Per-master read average memory access latency
system.mem_ctrls.masterReadAvgLat::.switch_cpus.data     28643.89                       # Per-master read average memory access latency
system.mem_ctrls.masterReadBytes::.switch_cpus.dtb.walker          920                       # Per-master bytes read from memory
system.mem_ctrls.masterReadBytes::.switch_cpus.itb.walker          872                       # Per-master bytes read from memory
system.mem_ctrls.masterReadBytes::.switch_cpus.inst       841072                       # Per-master bytes read from memory
system.mem_ctrls.masterReadBytes::.switch_cpus.data       115459                       # Per-master bytes read from memory
system.mem_ctrls.masterReadRate::.switch_cpus.dtb.walker 120694.929920850365                       # Per-master bytes read from memory rate (Bytes/sec)
system.mem_ctrls.masterReadRate::.switch_cpus.itb.walker 114397.803142371209                       # Per-master bytes read from memory rate (Bytes/sec)
system.mem_ctrls.masterReadRate::.switch_cpus.inst 110340354.454771146178                       # Per-master bytes read from memory rate (Bytes/sec)
system.mem_ctrls.masterReadRate::.switch_cpus.data 15147082.514925502241                       # Per-master bytes read from memory rate (Bytes/sec)
system.mem_ctrls.masterReadTotalLat::.switch_cpus.dtb.walker      5260750                       # Per-master read total memory access latency
system.mem_ctrls.masterReadTotalLat::.switch_cpus.itb.walker      5343500                       # Per-master read total memory access latency
system.mem_ctrls.masterReadTotalLat::.switch_cpus.inst   2951014500                       # Per-master read total memory access latency
system.mem_ctrls.masterReadTotalLat::.switch_cpus.data    591782750                       # Per-master read total memory access latency
system.mem_ctrls.masterWriteAccesses::.switch_cpus.data        12502                       # Per-master write serviced memory accesses
system.mem_ctrls.masterWriteAvgLat::.switch_cpus.data  16350007.34                       # Per-master write average memory access latency
system.mem_ctrls.masterWriteBytes::.switch_cpus.data         5860                       # Per-master bytes write to memory
system.mem_ctrls.masterWriteRate::.switch_cpus.data 768774.227539329440                       # Per-master bytes write to memory rate (Bytes/sec)
system.mem_ctrls.masterWriteTotalLat::.switch_cpus.data 204407791750                       # Per-master write total memory access latency
system.mem_ctrls.mergedWrBursts                 11595                       # Number of DRAM write bursts merged with an existing one
system.mem_ctrls.neitherReadNorWriteReqs            0                       # Number of requests that are neither read nor write
system.mem_ctrls.numRdRetry                         0                       # Number of times read queue was full causing retry
system.mem_ctrls.numReadWriteTurnArounds           57                       # Number of turnarounds from READ to WRITE
system.mem_ctrls.numStayReadState              260364                       # Number of times bus staying in READ state
system.mem_ctrls.numStayWriteState                858                       # Number of times bus staying in WRITE state
system.mem_ctrls.numWrRetry                         0                       # Number of times write queue was full causing retry
system.mem_ctrls.numWriteReadTurnArounds           57                       # Number of turnarounds from WRITE to READ
system.mem_ctrls.num_reads::.switch_cpus.dtb.walker          119                       # Number of read requests responded to by this memory
system.mem_ctrls.num_reads::.switch_cpus.itb.walker          120                       # Number of read requests responded to by this memory
system.mem_ctrls.num_reads::.switch_cpus.inst       105134                       # Number of read requests responded to by this memory
system.mem_ctrls.num_reads::.switch_cpus.data        20660                       # Number of read requests responded to by this memory
system.mem_ctrls.num_reads::total              126033                       # Number of read requests responded to by this memory
system.mem_ctrls.num_writes::.switch_cpus.data        12502                       # Number of write requests responded to by this memory
system.mem_ctrls.num_writes::total              12502                       # Number of write requests responded to by this memory
system.mem_ctrls.pageHitRate                    88.00                       # Row buffer hit rate, read and write combined
system.mem_ctrls.peakBW                      12800.00                       # Theoretical peak bandwidth in MiByte/s
system.mem_ctrls.perBankRdBursts::0              4471                       # Per bank write bursts
system.mem_ctrls.perBankRdBursts::1              7728                       # Per bank write bursts
system.mem_ctrls.perBankRdBursts::2             27765                       # Per bank write bursts
system.mem_ctrls.perBankRdBursts::3              5955                       # Per bank write bursts
system.mem_ctrls.perBankRdBursts::4              3585                       # Per bank write bursts
system.mem_ctrls.perBankRdBursts::5             12818                       # Per bank write bursts
system.mem_ctrls.perBankRdBursts::6             18294                       # Per bank write bursts
system.mem_ctrls.perBankRdBursts::7              8174                       # Per bank write bursts
system.mem_ctrls.perBankRdBursts::8             11149                       # Per bank write bursts
system.mem_ctrls.perBankRdBursts::9              6571                       # Per bank write bursts
system.mem_ctrls.perBankRdBursts::10             5242                       # Per bank write bursts
system.mem_ctrls.perBankRdBursts::11             2703                       # Per bank write bursts
system.mem_ctrls.perBankRdBursts::12             1237                       # Per bank write bursts
system.mem_ctrls.perBankRdBursts::13             2983                       # Per bank write bursts
system.mem_ctrls.perBankRdBursts::14             1828                       # Per bank write bursts
system.mem_ctrls.perBankRdBursts::15             2483                       # Per bank write bursts
system.mem_ctrls.perBankWrBursts::0                32                       # Per bank write bursts
system.mem_ctrls.perBankWrBursts::1               126                       # Per bank write bursts
system.mem_ctrls.perBankWrBursts::2                39                       # Per bank write bursts
system.mem_ctrls.perBankWrBursts::3               305                       # Per bank write bursts
system.mem_ctrls.perBankWrBursts::4                 4                       # Per bank write bursts
system.mem_ctrls.perBankWrBursts::5               120                       # Per bank write bursts
system.mem_ctrls.perBankWrBursts::6                52                       # Per bank write bursts
system.mem_ctrls.perBankWrBursts::7                41                       # Per bank write bursts
system.mem_ctrls.perBankWrBursts::8                33                       # Per bank write bursts
system.mem_ctrls.perBankWrBursts::9                29                       # Per bank write bursts
system.mem_ctrls.perBankWrBursts::10               48                       # Per bank write bursts
system.mem_ctrls.perBankWrBursts::11               56                       # Per bank write bursts
system.mem_ctrls.perBankWrBursts::12               20                       # Per bank write bursts
system.mem_ctrls.perBankWrBursts::13                3                       # Per bank write bursts
system.mem_ctrls.perBankWrBursts::14                1                       # Per bank write bursts
system.mem_ctrls.perBankWrBursts::15                6                       # Per bank write bursts
system.mem_ctrls.priorityMaxLatency      0.008317328750                       # per QoS priority maximum request to response latency (s)
system.mem_ctrls.priorityMinLatency      0.000000018750                       # per QoS priority minimum request to response latency (s)
system.mem_ctrls.pwrStateResidencyTicks::UNDEFINED 353619289815000                       # Cumulative time (in ticks) in various power states
system.mem_ctrls.rdPerTurnAround::samples           57                       # Reads before turning the bus around for writes
system.mem_ctrls.rdPerTurnAround::mean    2166.508772                       # Reads before turning the bus around for writes
system.mem_ctrls.rdPerTurnAround::gmean    975.685086                       # Reads before turning the bus around for writes
system.mem_ctrls.rdPerTurnAround::stdev   7449.969207                       # Reads before turning the bus around for writes
system.mem_ctrls.rdPerTurnAround::0-2047           47     82.46%     82.46% # Reads before turning the bus around for writes
system.mem_ctrls.rdPerTurnAround::2048-4095            7     12.28%     94.74% # Reads before turning the bus around for writes
system.mem_ctrls.rdPerTurnAround::4096-6143            2      3.51%     98.25% # Reads before turning the bus around for writes
system.mem_ctrls.rdPerTurnAround::55296-57343            1      1.75%    100.00% # Reads before turning the bus around for writes
system.mem_ctrls.rdPerTurnAround::total            57                       # Reads before turning the bus around for writes
system.mem_ctrls.rdQLenPdf::0                  122986                       # What read queue length does an incoming req see
system.mem_ctrls.rdQLenPdf::1                       0                       # What read queue length does an incoming req see
system.mem_ctrls.rdQLenPdf::2                       0                       # What read queue length does an incoming req see
system.mem_ctrls.rdQLenPdf::3                       0                       # What read queue length does an incoming req see
system.mem_ctrls.rdQLenPdf::4                       0                       # What read queue length does an incoming req see
system.mem_ctrls.rdQLenPdf::5                       0                       # What read queue length does an incoming req see
system.mem_ctrls.rdQLenPdf::6                       0                       # What read queue length does an incoming req see
system.mem_ctrls.rdQLenPdf::7                       0                       # What read queue length does an incoming req see
system.mem_ctrls.rdQLenPdf::8                       0                       # What read queue length does an incoming req see
system.mem_ctrls.rdQLenPdf::9                       0                       # What read queue length does an incoming req see
system.mem_ctrls.rdQLenPdf::10                      0                       # What read queue length does an incoming req see
system.mem_ctrls.rdQLenPdf::11                      0                       # What read queue length does an incoming req see
system.mem_ctrls.rdQLenPdf::12                      0                       # What read queue length does an incoming req see
system.mem_ctrls.rdQLenPdf::13                      0                       # What read queue length does an incoming req see
system.mem_ctrls.rdQLenPdf::14                      0                       # What read queue length does an incoming req see
system.mem_ctrls.rdQLenPdf::15                      0                       # What read queue length does an incoming req see
system.mem_ctrls.rdQLenPdf::16                      0                       # What read queue length does an incoming req see
system.mem_ctrls.rdQLenPdf::17                      0                       # What read queue length does an incoming req see
system.mem_ctrls.rdQLenPdf::18                      0                       # What read queue length does an incoming req see
system.mem_ctrls.rdQLenPdf::19                      0                       # What read queue length does an incoming req see
system.mem_ctrls.rdQLenPdf::20                      0                       # What read queue length does an incoming req see
system.mem_ctrls.rdQLenPdf::21                      0                       # What read queue length does an incoming req see
system.mem_ctrls.rdQLenPdf::22                      0                       # What read queue length does an incoming req see
system.mem_ctrls.rdQLenPdf::23                      0                       # What read queue length does an incoming req see
system.mem_ctrls.rdQLenPdf::24                      0                       # What read queue length does an incoming req see
system.mem_ctrls.rdQLenPdf::25                      0                       # What read queue length does an incoming req see
system.mem_ctrls.rdQLenPdf::26                      0                       # What read queue length does an incoming req see
system.mem_ctrls.rdQLenPdf::27                      0                       # What read queue length does an incoming req see
system.mem_ctrls.rdQLenPdf::28                      0                       # What read queue length does an incoming req see
system.mem_ctrls.rdQLenPdf::29                      0                       # What read queue length does an incoming req see
system.mem_ctrls.rdQLenPdf::30                      0                       # What read queue length does an incoming req see
system.mem_ctrls.rdQLenPdf::31                      0                       # What read queue length does an incoming req see
system.mem_ctrls.readBursts                    126033                       # Number of DRAM read bursts, including those serviced by the write queue
system.mem_ctrls.readPktSize::0                   902                       # Read request sizes (log2)
system.mem_ctrls.readPktSize::1                   173                       # Read request sizes (log2)
system.mem_ctrls.readPktSize::2                  5815                       # Read request sizes (log2)
system.mem_ctrls.readPktSize::3                119143                       # Read request sizes (log2)
system.mem_ctrls.readPktSize::4                     0                       # Read request sizes (log2)
system.mem_ctrls.readPktSize::5                     0                       # Read request sizes (log2)
system.mem_ctrls.readPktSize::6                     0                       # Read request sizes (log2)
system.mem_ctrls.readReqs                      126033                       # Number of read requests accepted
system.mem_ctrls.readRowHitRate                 88.10                       # Row buffer hit rate for reads
system.mem_ctrls.readRowHits                   108349                       # Number of row buffer hits during reads
system.mem_ctrls.servicedByWrQ                   3047                       # Number of DRAM read bursts serviced by the write queue
system.mem_ctrls.totBusLat                  614930000                       # Total ticks spent in databus transfers
system.mem_ctrls.totGap                    7622538000                       # Total gap between requests
system.mem_ctrls.totMemAccLat              3553401500                       # Total ticks spent from burst creation until serviced by the DRAM
system.mem_ctrls.totQLat                   1247414000                       # Total ticks spent queuing
system.mem_ctrls.wrPerTurnAround::samples           57                       # Writes before turning the bus around for reads
system.mem_ctrls.wrPerTurnAround::mean      16.052632                       # Writes before turning the bus around for reads
system.mem_ctrls.wrPerTurnAround::gmean     16.048311                       # Writes before turning the bus around for reads
system.mem_ctrls.wrPerTurnAround::stdev      0.397360                       # Writes before turning the bus around for reads
system.mem_ctrls.wrPerTurnAround::16               56     98.25%     98.25% # Writes before turning the bus around for reads
system.mem_ctrls.wrPerTurnAround::19                1      1.75%    100.00% # Writes before turning the bus around for reads
system.mem_ctrls.wrPerTurnAround::total            57                       # Writes before turning the bus around for reads
system.mem_ctrls.wrQLenPdf::0                       0                       # What write queue length does an incoming req see
system.mem_ctrls.wrQLenPdf::1                       0                       # What write queue length does an incoming req see
system.mem_ctrls.wrQLenPdf::2                       0                       # What write queue length does an incoming req see
system.mem_ctrls.wrQLenPdf::3                       0                       # What write queue length does an incoming req see
system.mem_ctrls.wrQLenPdf::4                       0                       # What write queue length does an incoming req see
system.mem_ctrls.wrQLenPdf::5                       0                       # What write queue length does an incoming req see
system.mem_ctrls.wrQLenPdf::6                       0                       # What write queue length does an incoming req see
system.mem_ctrls.wrQLenPdf::7                       0                       # What write queue length does an incoming req see
system.mem_ctrls.wrQLenPdf::8                       0                       # What write queue length does an incoming req see
system.mem_ctrls.wrQLenPdf::9                       0                       # What write queue length does an incoming req see
system.mem_ctrls.wrQLenPdf::10                      0                       # What write queue length does an incoming req see
system.mem_ctrls.wrQLenPdf::11                      0                       # What write queue length does an incoming req see
system.mem_ctrls.wrQLenPdf::12                      0                       # What write queue length does an incoming req see
system.mem_ctrls.wrQLenPdf::13                      0                       # What write queue length does an incoming req see
system.mem_ctrls.wrQLenPdf::14                      0                       # What write queue length does an incoming req see
system.mem_ctrls.wrQLenPdf::15                      1                       # What write queue length does an incoming req see
system.mem_ctrls.wrQLenPdf::16                      1                       # What write queue length does an incoming req see
system.mem_ctrls.wrQLenPdf::17                     57                       # What write queue length does an incoming req see
system.mem_ctrls.wrQLenPdf::18                     57                       # What write queue length does an incoming req see
system.mem_ctrls.wrQLenPdf::19                     56                       # What write queue length does an incoming req see
system.mem_ctrls.wrQLenPdf::20                     57                       # What write queue length does an incoming req see
system.mem_ctrls.wrQLenPdf::21                     56                       # What write queue length does an incoming req see
system.mem_ctrls.wrQLenPdf::22                     56                       # What write queue length does an incoming req see
system.mem_ctrls.wrQLenPdf::23                     56                       # What write queue length does an incoming req see
system.mem_ctrls.wrQLenPdf::24                     56                       # What write queue length does an incoming req see
system.mem_ctrls.wrQLenPdf::25                     56                       # What write queue length does an incoming req see
system.mem_ctrls.wrQLenPdf::26                     56                       # What write queue length does an incoming req see
system.mem_ctrls.wrQLenPdf::27                     57                       # What write queue length does an incoming req see
system.mem_ctrls.wrQLenPdf::28                     57                       # What write queue length does an incoming req see
system.mem_ctrls.wrQLenPdf::29                     57                       # What write queue length does an incoming req see
system.mem_ctrls.wrQLenPdf::30                     57                       # What write queue length does an incoming req see
system.mem_ctrls.wrQLenPdf::31                     57                       # What write queue length does an incoming req see
system.mem_ctrls.wrQLenPdf::32                     57                       # What write queue length does an incoming req see
system.mem_ctrls.wrQLenPdf::33                      0                       # What write queue length does an incoming req see
system.mem_ctrls.wrQLenPdf::34                      0                       # What write queue length does an incoming req see
system.mem_ctrls.wrQLenPdf::35                      0                       # What write queue length does an incoming req see
system.mem_ctrls.wrQLenPdf::36                      0                       # What write queue length does an incoming req see
system.mem_ctrls.wrQLenPdf::37                      0                       # What write queue length does an incoming req see
system.mem_ctrls.wrQLenPdf::38                      0                       # What write queue length does an incoming req see
system.mem_ctrls.wrQLenPdf::39                      0                       # What write queue length does an incoming req see
system.mem_ctrls.wrQLenPdf::40                      0                       # What write queue length does an incoming req see
system.mem_ctrls.wrQLenPdf::41                      0                       # What write queue length does an incoming req see
system.mem_ctrls.wrQLenPdf::42                      0                       # What write queue length does an incoming req see
system.mem_ctrls.wrQLenPdf::43                      0                       # What write queue length does an incoming req see
system.mem_ctrls.wrQLenPdf::44                      0                       # What write queue length does an incoming req see
system.mem_ctrls.wrQLenPdf::45                      0                       # What write queue length does an incoming req see
system.mem_ctrls.wrQLenPdf::46                      0                       # What write queue length does an incoming req see
system.mem_ctrls.wrQLenPdf::47                      0                       # What write queue length does an incoming req see
system.mem_ctrls.wrQLenPdf::48                      0                       # What write queue length does an incoming req see
system.mem_ctrls.wrQLenPdf::49                      0                       # What write queue length does an incoming req see
system.mem_ctrls.wrQLenPdf::50                      0                       # What write queue length does an incoming req see
system.mem_ctrls.wrQLenPdf::51                      0                       # What write queue length does an incoming req see
system.mem_ctrls.wrQLenPdf::52                      0                       # What write queue length does an incoming req see
system.mem_ctrls.wrQLenPdf::53                      0                       # What write queue length does an incoming req see
system.mem_ctrls.wrQLenPdf::54                      0                       # What write queue length does an incoming req see
system.mem_ctrls.wrQLenPdf::55                      0                       # What write queue length does an incoming req see
system.mem_ctrls.wrQLenPdf::56                      0                       # What write queue length does an incoming req see
system.mem_ctrls.wrQLenPdf::57                      0                       # What write queue length does an incoming req see
system.mem_ctrls.wrQLenPdf::58                      0                       # What write queue length does an incoming req see
system.mem_ctrls.wrQLenPdf::59                      0                       # What write queue length does an incoming req see
system.mem_ctrls.wrQLenPdf::60                      0                       # What write queue length does an incoming req see
system.mem_ctrls.wrQLenPdf::61                      0                       # What write queue length does an incoming req see
system.mem_ctrls.wrQLenPdf::62                      0                       # What write queue length does an incoming req see
system.mem_ctrls.wrQLenPdf::63                      0                       # What write queue length does an incoming req see
system.mem_ctrls.writeBursts                    12502                       # Number of DRAM write bursts, including those merged in the write queue
system.mem_ctrls.writePktSize::0                  307                       # Write request sizes (log2)
system.mem_ctrls.writePktSize::1                  167                       # Write request sizes (log2)
system.mem_ctrls.writePktSize::2                 2371                       # Write request sizes (log2)
system.mem_ctrls.writePktSize::3                 9657                       # Write request sizes (log2)
system.mem_ctrls.writePktSize::4                    0                       # Write request sizes (log2)
system.mem_ctrls.writePktSize::5                    0                       # Write request sizes (log2)
system.mem_ctrls.writePktSize::6                    0                       # Write request sizes (log2)
system.mem_ctrls.writeReqs                      12502                       # Number of write requests accepted
system.mem_ctrls.writeRowHitRate                74.75                       # Row buffer hit rate for writes
system.mem_ctrls.writeRowHits                     678                       # Number of row buffer hits during writes
system.mem_ctrls_0.actBackEnergy           1234442730                       # Energy for active background per rank (pJ)
system.mem_ctrls_0.actEnergy                 69722100                       # Energy for activate commands per rank (pJ)
system.mem_ctrls_0.actPowerDownEnergy      2160884250                       # Energy for active power-down per rank (pJ)
system.mem_ctrls_0.averagePower            631.512040                       # Core power per rank (mW)
system.mem_ctrls_0.memoryStateTime::IDLE      6576000                       # Time in different power states
system.mem_ctrls_0.memoryStateTime::REF     254540000                       # Time in different power states
system.mem_ctrls_0.memoryStateTime::SREF       365000                       # Time in different power states
system.mem_ctrls_0.memoryStateTime::PRE_PDN    140318250                       # Time in different power states
system.mem_ctrls_0.memoryStateTime::ACT    2485009500                       # Time in different power states
system.mem_ctrls_0.memoryStateTime::ACT_PDN   4735745750                       # Time in different power states
system.mem_ctrls_0.preBackEnergy             15586560                       # Energy for precharge background per rank (pJ)
system.mem_ctrls_0.preEnergy                 37042995                       # Energy for precharge commands per rank (pJ)
system.mem_ctrls_0.prePowerDownEnergy        53901120                       # Energy for precharge power-down per rank (pJ)
system.mem_ctrls_0.readEnergy               634574640                       # Energy for read commands per rank (pJ)
system.mem_ctrls_0.refreshEnergy         601732560.000000                       # Energy for refresh commands per rank (pJ)
system.mem_ctrls_0.selfRefreshEnergy     1859220.000000                       # Energy for self refresh per rank (pJ)
system.mem_ctrls_0.totalEnergy             4813715685                       # Total energy per rank (pJ)
system.mem_ctrls_0.totalIdleTime           4876398750                       # Total Idle time Per DRAM Rank
system.mem_ctrls_0.writeEnergy                3753180                       # Energy for write commands per rank (pJ)
system.mem_ctrls_1.actBackEnergy            567120930                       # Energy for active background per rank (pJ)
system.mem_ctrls_1.actEnergy                 36578220                       # Energy for activate commands per rank (pJ)
system.mem_ctrls_1.actPowerDownEnergy      2431023210                       # Energy for active power-down per rank (pJ)
system.mem_ctrls_1.averagePower            563.964090                       # Core power per rank (mW)
system.mem_ctrls_1.memoryStateTime::IDLE      9732000                       # Time in different power states
system.mem_ctrls_1.memoryStateTime::REF     252720000                       # Time in different power states
system.mem_ctrls_1.memoryStateTime::SREF     52335750                       # Time in different power states
system.mem_ctrls_1.memoryStateTime::PRE_PDN    952097250                       # Time in different power states
system.mem_ctrls_1.memoryStateTime::ACT    1024799000                       # Time in different power states
system.mem_ctrls_1.memoryStateTime::ACT_PDN   5330959500                       # Time in different power states
system.mem_ctrls_1.preBackEnergy             16962720                       # Energy for precharge background per rank (pJ)
system.mem_ctrls_1.preEnergy                 19437990                       # Energy for precharge commands per rank (pJ)
system.mem_ctrls_1.prePowerDownEnergy       365884800                       # Energy for precharge power-down per rank (pJ)
system.mem_ctrls_1.readEnergy               244180860                       # Energy for read commands per rank (pJ)
system.mem_ctrls_1.refreshEnergy         597430080.000000                       # Energy for refresh commands per rank (pJ)
system.mem_ctrls_1.selfRefreshEnergy         19187880                       # Energy for self refresh per rank (pJ)
system.mem_ctrls_1.totalEnergy             4298829810                       # Total energy per rank (pJ)
system.mem_ctrls_1.totalIdleTime           6335087000                       # Total Idle time Per DRAM Rank
system.mem_ctrls_1.writeEnergy                1023120                       # Energy for write commands per rank (pJ)
system.membus.badaddr_responder.pwrStateResidencyTicks::UNDEFINED 353619289815000                       # Cumulative time (in ticks) in various power states
system.membus.pkt_count_system.apicbridge.master::system.cpu.interrupts.int_slave           46                       # Packet count per connected master and slave (bytes)
system.membus.pkt_count_system.apicbridge.master::total           46                       # Packet count per connected master and slave (bytes)
system.membus.pkt_count_system.cpu.icache_port::system.mem_ctrls.port       210268                       # Packet count per connected master and slave (bytes)
system.membus.pkt_count_system.cpu.icache_port::total       210268                       # Packet count per connected master and slave (bytes)
system.membus.pkt_count_system.cpu.dcache_port::system.bridge.slave          184                       # Packet count per connected master and slave (bytes)
system.membus.pkt_count_system.cpu.dcache_port::system.cpu.interrupts.pio           20                       # Packet count per connected master and slave (bytes)
system.membus.pkt_count_system.cpu.dcache_port::system.mem_ctrls.port        66324                       # Packet count per connected master and slave (bytes)
system.membus.pkt_count_system.cpu.dcache_port::total        66528                       # Packet count per connected master and slave (bytes)
system.membus.pkt_count_system.cpu.itb.walker.port::system.mem_ctrls.port          240                       # Packet count per connected master and slave (bytes)
system.membus.pkt_count_system.cpu.itb.walker.port::total          240                       # Packet count per connected master and slave (bytes)
system.membus.pkt_count_system.cpu.dtb.walker.port::system.mem_ctrls.port          238                       # Packet count per connected master and slave (bytes)
system.membus.pkt_count_system.cpu.dtb.walker.port::total          238                       # Packet count per connected master and slave (bytes)
system.membus.pkt_count::total                 277320                       # Packet count per connected master and slave (bytes)
system.membus.pkt_size_system.apicbridge.master::system.cpu.interrupts.int_slave           92                       # Cumulative packet size per connected master and slave (bytes)
system.membus.pkt_size_system.apicbridge.master::total           92                       # Cumulative packet size per connected master and slave (bytes)
system.membus.pkt_size_system.cpu.icache_port::system.mem_ctrls.port       841072                       # Cumulative packet size per connected master and slave (bytes)
system.membus.pkt_size_system.cpu.icache_port::total       841072                       # Cumulative packet size per connected master and slave (bytes)
system.membus.pkt_size_system.cpu.dcache_port::system.bridge.slave           92                       # Cumulative packet size per connected master and slave (bytes)
system.membus.pkt_size_system.cpu.dcache_port::system.cpu.interrupts.pio           40                       # Cumulative packet size per connected master and slave (bytes)
system.membus.pkt_size_system.cpu.dcache_port::system.mem_ctrls.port       222049                       # Cumulative packet size per connected master and slave (bytes)
system.membus.pkt_size_system.cpu.dcache_port::total       222181                       # Cumulative packet size per connected master and slave (bytes)
system.membus.pkt_size_system.cpu.itb.walker.port::system.mem_ctrls.port          960                       # Cumulative packet size per connected master and slave (bytes)
system.membus.pkt_size_system.cpu.itb.walker.port::total          960                       # Cumulative packet size per connected master and slave (bytes)
system.membus.pkt_size_system.cpu.dtb.walker.port::system.mem_ctrls.port          952                       # Cumulative packet size per connected master and slave (bytes)
system.membus.pkt_size_system.cpu.dtb.walker.port::total          952                       # Cumulative packet size per connected master and slave (bytes)
system.membus.pkt_size::total                 1065257                       # Cumulative packet size per connected master and slave (bytes)
system.membus.pwrStateResidencyTicks::UNDEFINED 353619289815000                       # Cumulative time (in ticks) in various power states
system.membus.reqLayer0.occupancy              119000                       # Layer occupancy (ticks)
system.membus.reqLayer0.utilization               0.0                       # Layer utilization (%)
system.membus.reqLayer2.occupancy               20000                       # Layer occupancy (ticks)
system.membus.reqLayer2.utilization               0.0                       # Layer utilization (%)
system.membus.reqLayer3.occupancy               46000                       # Layer occupancy (ticks)
system.membus.reqLayer3.utilization               0.0                       # Layer utilization (%)
system.membus.reqLayer4.occupancy           151037500                       # Layer occupancy (ticks)
system.membus.reqLayer4.utilization               2.0                       # Layer utilization (%)
system.membus.respLayer0.occupancy              23000                       # Layer occupancy (ticks)
system.membus.respLayer0.utilization              0.0                       # Layer utilization (%)
system.membus.respLayer3.occupancy          239040500                       # Layer occupancy (ticks)
system.membus.respLayer3.utilization              3.1                       # Layer utilization (%)
system.membus.respLayer4.occupancy           60166250                       # Layer occupancy (ticks)
system.membus.respLayer4.utilization              0.8                       # Layer utilization (%)
system.membus.respLayer5.occupancy             295500                       # Layer occupancy (ticks)
system.membus.respLayer5.utilization              0.0                       # Layer utilization (%)
system.membus.respLayer6.occupancy             302250                       # Layer occupancy (ticks)
system.membus.respLayer6.utilization              0.0                       # Layer utilization (%)
system.membus.snoopTraffic                          0                       # Total snoop traffic (bytes)
system.membus.snoop_fanout::samples            138660                       # Request fanout histogram
system.membus.snoop_fanout::mean                    0                       # Request fanout histogram
system.membus.snoop_fanout::stdev                   0                       # Request fanout histogram
system.membus.snoop_fanout::underflows              0      0.00%      0.00% # Request fanout histogram
system.membus.snoop_fanout::0                  138660    100.00%    100.00% # Request fanout histogram
system.membus.snoop_fanout::1                       0      0.00%    100.00% # Request fanout histogram
system.membus.snoop_fanout::overflows               0      0.00%    100.00% # Request fanout histogram
system.membus.snoop_fanout::min_value               0                       # Request fanout histogram
system.membus.snoop_fanout::max_value               0                       # Request fanout histogram
system.membus.snoop_fanout::total              138660                       # Request fanout histogram
system.membus.snoop_filter.hit_multi_requests            0                       # Number of requests hitting in the snoop filter with multiple (>1) holders of the requested data.
system.membus.snoop_filter.hit_multi_snoops            0                       # Number of snoops hitting in the snoop filter with multiple (>1) holders of the requested data.
system.membus.snoop_filter.hit_single_requests            0                       # Number of requests hitting in the snoop filter with a single holder of the requested data.
system.membus.snoop_filter.hit_single_snoops            0                       # Number of snoops hitting in the snoop filter with a single holder of the requested data.
system.membus.snoop_filter.tot_requests             0                       # Total number of requests made to the snoop filter.
system.membus.snoop_filter.tot_snoops               0                       # Total number of snoops made to the snoop filter.
system.membus.snoops                                0                       # Total snoops (count)
system.membus.trans_dist::ReadReq              126076                       # Transaction distribution
system.membus.trans_dist::ReadResp             126076                       # Transaction distribution
system.membus.trans_dist::WriteReq              12539                       # Transaction distribution
system.membus.trans_dist::WriteResp             12539                       # Transaction distribution
system.membus.trans_dist::SoftPFReq                22                       # Transaction distribution
system.membus.trans_dist::SoftPFResp               22                       # Transaction distribution
system.membus.trans_dist::MessageReq               23                       # Transaction distribution
system.membus.trans_dist::MessageResp              23                       # Transaction distribution
system.mmiofu.pwrStateResidencyTicks::UNDEFINED 353619289815000                       # Cumulative time (in ticks) in various power states
system.mmiofu_bridge.pwrStateResidencyTicks::UNDEFINED 353619289815000                       # Cumulative time (in ticks) in various power states
system.pc.behind_pci.pwrStateResidencyTicks::UNDEFINED 353619289815000                       # Cumulative time (in ticks) in various power states
system.pc.com_1.pwrStateResidencyTicks::UNDEFINED 353619289815000                       # Cumulative time (in ticks) in various power states
system.pc.fake_com_2.pwrStateResidencyTicks::UNDEFINED 353619289815000                       # Cumulative time (in ticks) in various power states
system.pc.fake_com_3.pwrStateResidencyTicks::UNDEFINED 353619289815000                       # Cumulative time (in ticks) in various power states
system.pc.fake_com_4.pwrStateResidencyTicks::UNDEFINED 353619289815000                       # Cumulative time (in ticks) in various power states
system.pc.fake_floppy.pwrStateResidencyTicks::UNDEFINED 353619289815000                       # Cumulative time (in ticks) in various power states
system.pc.i_dont_exist1.pwrStateResidencyTicks::UNDEFINED 353619289815000                       # Cumulative time (in ticks) in various power states
system.pc.i_dont_exist2.pwrStateResidencyTicks::UNDEFINED 353619289815000                       # Cumulative time (in ticks) in various power states
system.pc.pci_host.pwrStateResidencyTicks::UNDEFINED 353619289815000                       # Cumulative time (in ticks) in various power states
system.pc.south_bridge.cmos.pwrStateResidencyTicks::UNDEFINED 353619289815000                       # Cumulative time (in ticks) in various power states
system.pc.south_bridge.dma1.pwrStateResidencyTicks::UNDEFINED 353619289815000                       # Cumulative time (in ticks) in various power states
system.pc.south_bridge.ide.disks0.dma_read_bytes            0                       # Number of bytes transfered via DMA reads (not PRD).
system.pc.south_bridge.ide.disks0.dma_read_full_pages            0                       # Number of full page size DMA reads (not PRD).
system.pc.south_bridge.ide.disks0.dma_read_txs            0                       # Number of DMA read transactions (not PRD).
system.pc.south_bridge.ide.disks0.dma_write_bytes            0                       # Number of bytes transfered via DMA writes.
system.pc.south_bridge.ide.disks0.dma_write_full_pages            0                       # Number of full page size DMA writes.
system.pc.south_bridge.ide.disks0.dma_write_txs            0                       # Number of DMA write transactions.
system.pc.south_bridge.ide.disks1.dma_read_bytes            0                       # Number of bytes transfered via DMA reads (not PRD).
system.pc.south_bridge.ide.disks1.dma_read_full_pages            0                       # Number of full page size DMA reads (not PRD).
system.pc.south_bridge.ide.disks1.dma_read_txs            0                       # Number of DMA read transactions (not PRD).
system.pc.south_bridge.ide.disks1.dma_write_bytes            0                       # Number of bytes transfered via DMA writes.
system.pc.south_bridge.ide.disks1.dma_write_full_pages            0                       # Number of full page size DMA writes.
system.pc.south_bridge.ide.disks1.dma_write_txs            0                       # Number of DMA write transactions.
system.pc.south_bridge.ide.pwrStateResidencyTicks::UNDEFINED 353619289815000                       # Cumulative time (in ticks) in various power states
system.pc.south_bridge.io_apic.pwrStateResidencyTicks::UNDEFINED 353619289815000                       # Cumulative time (in ticks) in various power states
system.pc.south_bridge.keyboard.pwrStateResidencyTicks::UNDEFINED 353619289815000                       # Cumulative time (in ticks) in various power states
system.pc.south_bridge.pic1.pwrStateResidencyTicks::UNDEFINED 353619289815000                       # Cumulative time (in ticks) in various power states
system.pc.south_bridge.pic2.pwrStateResidencyTicks::UNDEFINED 353619289815000                       # Cumulative time (in ticks) in various power states
system.pc.south_bridge.pit.pwrStateResidencyTicks::UNDEFINED 353619289815000                       # Cumulative time (in ticks) in various power states
system.pc.south_bridge.speaker.pwrStateResidencyTicks::UNDEFINED 353619289815000                       # Cumulative time (in ticks) in various power states
system.pwrStateResidencyTicks::UNDEFINED 353619289815000                       # Cumulative time (in ticks) in various power states
system.switch_cpus.Branches                     19033                       # Number of branches fetched
system.switch_cpus.committedInsts               80261                       # Number of instructions committed
system.switch_cpus.committedOps                161163                       # Number of ops (including micro ops) committed
system.switch_cpus.dtb.pwrStateResidencyTicks::UNDEFINED 353619289815000                       # Cumulative time (in ticks) in various power states
system.switch_cpus.dtb.rdAccesses               20687                       # TLB accesses on read requests
system.switch_cpus.dtb.rdMisses                    26                       # TLB misses on read requests
system.switch_cpus.dtb.walker.pwrStateResidencyTicks::UNDEFINED 353619289815000                       # Cumulative time (in ticks) in various power states
system.switch_cpus.dtb.wrAccesses               12516                       # TLB accesses on write requests
system.switch_cpus.dtb.wrMisses                     4                       # TLB misses on write requests
system.switch_cpus.idle_fraction                    0                       # Percentage of idle cycles
system.switch_cpus.itb.pwrStateResidencyTicks::UNDEFINED 353619289815000                       # Cumulative time (in ticks) in various power states
system.switch_cpus.itb.rdAccesses                   0                       # TLB accesses on read requests
system.switch_cpus.itb.rdMisses                     0                       # TLB misses on read requests
system.switch_cpus.itb.walker.pwrStateResidencyTicks::UNDEFINED 353619289815000                       # Cumulative time (in ticks) in various power states
system.switch_cpus.itb.wrAccesses              105164                       # TLB accesses on write requests
system.switch_cpus.itb.wrMisses                    30                       # TLB misses on write requests
system.switch_cpus.kern.inst.arm                    0                       # number of arm instructions executed
system.switch_cpus.kern.inst.quiesce                0                       # number of quiesce instructions executed
system.switch_cpus.not_idle_fraction                1                       # Percentage of non-idle cycles
system.switch_cpus.numCycles                 15245474                       # number of cpu cycles simulated
system.switch_cpus.numWorkItemsCompleted            0                       # number of work items this cpu completed
system.switch_cpus.numWorkItemsStarted              0                       # number of work items this cpu started
system.switch_cpus.num_busy_cycles           15245474                       # Number of busy cycles
system.switch_cpus.num_cc_register_reads        82474                       # number of times the CC registers were read
system.switch_cpus.num_cc_register_writes        49499                       # number of times the CC registers were written
system.switch_cpus.num_conditional_control_insts        11951                       # number of instructions that are conditional controls
system.switch_cpus.num_fp_alu_accesses           8436                       # Number of float alu accesses
system.switch_cpus.num_fp_insts                  8436                       # number of float instructions
system.switch_cpus.num_fp_register_reads        13916                       # number of times the floating registers were read
system.switch_cpus.num_fp_register_writes         7203                       # number of times the floating registers were written
system.switch_cpus.num_func_calls                5204                       # number of times a function call or return occured
system.switch_cpus.num_idle_cycles                  0                       # Number of idle cycles
system.switch_cpus.num_int_alu_accesses        153886                       # Number of integer alu accesses
system.switch_cpus.num_int_insts               153886                       # number of integer instructions
system.switch_cpus.num_int_register_reads       293464                       # number of times the integer registers were read
system.switch_cpus.num_int_register_writes       123387                       # number of times the integer registers were written
system.switch_cpus.num_load_insts               20731                       # Number of load instructions
system.switch_cpus.num_mem_refs                 33270                       # number of memory refs
system.switch_cpus.num_store_insts              12539                       # Number of store instructions
system.switch_cpus.num_vec_alu_accesses             0                       # Number of vector alu accesses
system.switch_cpus.num_vec_insts                    0                       # number of vector instructions
system.switch_cpus.num_vec_register_reads            0                       # number of times the vector registers were read
system.switch_cpus.num_vec_register_writes            0                       # number of times the vector registers were written
system.switch_cpus.op_class::No_OpClass           896      0.56%      0.56% # Class of executed instruction
system.switch_cpus.op_class::IntAlu            122013     75.71%     76.26% # Class of executed instruction
system.switch_cpus.op_class::IntMult               71      0.04%     76.30% # Class of executed instruction
system.switch_cpus.op_class::IntDiv                28      0.02%     76.32% # Class of executed instruction
system.switch_cpus.op_class::FloatAdd             804      0.50%     76.82% # Class of executed instruction
system.switch_cpus.op_class::FloatCmp               0      0.00%     76.82% # Class of executed instruction
system.switch_cpus.op_class::FloatCvt               0      0.00%     76.82% # Class of executed instruction
system.switch_cpus.op_class::FloatMult            100      0.06%     76.88% # Class of executed instruction
system.switch_cpus.op_class::FloatMultAcc            0      0.00%     76.88% # Class of executed instruction
system.switch_cpus.op_class::FloatDiv               0      0.00%     76.88% # Class of executed instruction
system.switch_cpus.op_class::FloatMisc              0      0.00%     76.88% # Class of executed instruction
system.switch_cpus.op_class::FloatSqrt            100      0.06%     76.95% # Class of executed instruction
system.switch_cpus.op_class::SimdAdd                0      0.00%     76.95% # Class of executed instruction
system.switch_cpus.op_class::SimdAddAcc             0      0.00%     76.95% # Class of executed instruction
system.switch_cpus.op_class::SimdAlu             1226      0.76%     77.71% # Class of executed instruction
system.switch_cpus.op_class::SimdCmp                0      0.00%     77.71% # Class of executed instruction
system.switch_cpus.op_class::SimdCvt              218      0.14%     77.84% # Class of executed instruction
system.switch_cpus.op_class::SimdMisc             241      0.15%     77.99% # Class of executed instruction
system.switch_cpus.op_class::SimdMult               0      0.00%     77.99% # Class of executed instruction
system.switch_cpus.op_class::SimdMultAcc            0      0.00%     77.99% # Class of executed instruction
system.switch_cpus.op_class::SimdShift            200      0.12%     78.11% # Class of executed instruction
system.switch_cpus.op_class::SimdShiftAcc            0      0.00%     78.11% # Class of executed instruction
system.switch_cpus.op_class::SimdSqrt               0      0.00%     78.11% # Class of executed instruction
system.switch_cpus.op_class::SimdFloatAdd         1000      0.62%     78.74% # Class of executed instruction
system.switch_cpus.op_class::SimdFloatAlu            0      0.00%     78.74% # Class of executed instruction
system.switch_cpus.op_class::SimdFloatCmp            0      0.00%     78.74% # Class of executed instruction
system.switch_cpus.op_class::SimdFloatCvt          502      0.31%     79.05% # Class of executed instruction
system.switch_cpus.op_class::SimdFloatDiv          300      0.19%     79.23% # Class of executed instruction
system.switch_cpus.op_class::SimdFloatMisc            0      0.00%     79.23% # Class of executed instruction
system.switch_cpus.op_class::SimdFloatMult          200      0.12%     79.36% # Class of executed instruction
system.switch_cpus.op_class::SimdFloatMultAcc            0      0.00%     79.36% # Class of executed instruction
system.switch_cpus.op_class::SimdFloatSqrt            0      0.00%     79.36% # Class of executed instruction
system.switch_cpus.op_class::SimdAes                0      0.00%     79.36% # Class of executed instruction
system.switch_cpus.op_class::SimdAesMix             0      0.00%     79.36% # Class of executed instruction
system.switch_cpus.op_class::SimdSha1Hash            0      0.00%     79.36% # Class of executed instruction
system.switch_cpus.op_class::SimdSha1Hash2            0      0.00%     79.36% # Class of executed instruction
system.switch_cpus.op_class::SimdSha256Hash            0      0.00%     79.36% # Class of executed instruction
system.switch_cpus.op_class::SimdSha256Hash2            0      0.00%     79.36% # Class of executed instruction
system.switch_cpus.op_class::SimdShaSigma2            0      0.00%     79.36% # Class of executed instruction
system.switch_cpus.op_class::SimdShaSigma3            0      0.00%     79.36% # Class of executed instruction
system.switch_cpus.op_class::MemRead            19415     12.05%     91.40% # Class of executed instruction
system.switch_cpus.op_class::MemWrite           11622      7.21%     98.61% # Class of executed instruction
system.switch_cpus.op_class::FloatMemRead         1316      0.82%     99.43% # Class of executed instruction
system.switch_cpus.op_class::FloatMemWrite          917      0.57%    100.00% # Class of executed instruction
system.switch_cpus.op_class::IprAccess              0      0.00%    100.00% # Class of executed instruction
system.switch_cpus.op_class::InstPrefetch            0      0.00%    100.00% # Class of executed instruction
system.switch_cpus.op_class::total             161169                       # Class of executed instruction
system.switch_cpus.pwrStateResidencyTicks::ON 7620893191000                       # Cumulative time (in ticks) in various power states
system.voltage_domain.voltage                       1                       # Voltage in Volts

---------- End Simulation Statistics   ----------

---------- Begin Simulation Statistics ----------
final_tick                               353626565567000                       # Number of ticks from beginning of simulation (restored from checkpoints and never reset)
host_inst_rate                              199186800                       # Simulator instruction rate (inst/s)
host_mem_usage                                 993232                       # Number of bytes of host memory used
host_op_rate                                365914014                       # Simulator op (including micro ops) rate (op/s)
host_seconds                                     0.39                       # Real time elapsed on the host
host_tick_rate                            18551066337                       # Simulator tick rate (ticks/s)
sim_freq                                 1000000000000                       # Frequency of simulated ticks
sim_insts                                    78107404                       # Number of instructions simulated
sim_ops                                     143506553                       # Number of ops (including micro ops) simulated
sim_seconds                                  0.007276                       # Number of seconds simulated
sim_ticks                                  7275752000                       # Number of ticks simulated
system.apicbridge.pwrStateResidencyTicks::UNDEFINED   7275752000                       # Cumulative time (in ticks) in various power states
system.bridge.pwrStateResidencyTicks::UNDEFINED   7275752000                       # Cumulative time (in ticks) in various power states
system.clk_domain.clock                          1000                       # Clock period in ticks
system.cpu.apic_clk_domain.clock                 8000                       # Clock period in ticks
system.cpu.committedInsts                           0                       # Number of instructions committed
system.cpu.committedOps                             0                       # Number of ops (including micro ops) committed
system.cpu.dtb.pwrStateResidencyTicks::UNDEFINED   7275752000                       # Cumulative time (in ticks) in various power states
[...]
system.membus.pkt_count_system.cpu.dtb.walker.port::total            8                       # Packet count per connected master and slave (bytes)
system.membus.pkt_count::total                     90                       # Packet count per connected master and slave (bytes)
system.membus.pkt_size_system.cpu.icache_port::system.mem_ctrls.port          256                       # Cumulative packet size per connected master and slave (bytes)
system.membus.pkt_size_system.cpu.icache_port::total          256                       # Cumulative packet size per connected master and slave (bytes)
system.membus.pkt_size_system.cpu.dcache_port::system.mem_ctrls.port           64                       # Cumulative packet size per connected master and slave (bytes)
system.membus.pkt_size_system.cpu.dcache_port::total           64                       # Cumulative packet size per connected master and slave (bytes)
system.membus.pkt_size_system.cpu.dtb.walker.port::system.mem_ctrls.port           32                       # Cumulative packet size per connected master and slave (bytes)
system.membus.pkt_size_system.cpu.dtb.walker.port::total           32                       # Cumulative packet size per connected master and slave (bytes)
system.membus.pkt_size::total                     352                       # Cumulative packet size per connected master and slave (bytes)
system.membus.pwrStateResidencyTicks::UNDEFINED      2553000                       # Cumulative time (in ticks) in various power states
system.membus.reqLayer4.occupancy               47500                       # Layer occupancy (ticks)
system.membus.reqLayer4.utilization               1.9                       # Layer utilization (%)
system.membus.respLayer3.occupancy              72500                       # Layer occupancy (ticks)
system.membus.respLayer3.utilization              2.8                       # Layer utilization (%)
system.membus.respLayer4.occupancy              18000                       # Layer occupancy (ticks)
system.membus.respLayer4.utilization              0.7                       # Layer utilization (%)
system.membus.respLayer6.occupancy              10750                       # Layer occupancy (ticks)
system.membus.respLayer6.utilization              0.4                       # Layer utilization (%)
system.membus.snoopTraffic                          0                       # Total snoop traffic (bytes)
system.membus.snoop_fanout::samples                45                       # Request fanout histogram
system.membus.snoop_fanout::mean                    0                       # Request fanout histogram
system.membus.snoop_fanout::stdev                   0                       # Request fanout histogram
system.membus.snoop_fanout::underflows              0      0.00%      0.00% # Request fanout histogram
system.membus.snoop_fanout::0                      45    100.00%    100.00% # Request fanout histogram
system.membus.snoop_fanout::1                       0      0.00%    100.00% # Request fanout histogram
system.membus.snoop_fanout::overflows               0      0.00%    100.00% # Request fanout histogram
system.membus.snoop_fanout::min_value               0                       # Request fanout histogram
system.membus.snoop_fanout::max_value               0                       # Request fanout histogram
system.membus.snoop_fanout::total                  45                       # Request fanout histogram
system.membus.snoop_filter.hit_multi_requests            0                       # Number of requests hitting in the snoop filter with multiple (>1) holders of the requested data.
system.membus.snoop_filter.hit_multi_snoops            0                       # Number of snoops hitting in the snoop filter with multiple (>1) holders of the requested data.
system.membus.snoop_filter.hit_single_requests            0                       # Number of requests hitting in the snoop filter with a single holder of the requested data.
system.membus.snoop_filter.hit_single_snoops            0                       # Number of snoops hitting in the snoop filter with a single holder of the requested data.
system.membus.snoop_filter.tot_requests             0                       # Total number of requests made to the snoop filter.
system.membus.snoop_filter.tot_snoops               0                       # Total number of snoops made to the snoop filter.
system.membus.snoops                                0                       # Total snoops (count)
system.membus.trans_dist::ReadReq                  43                       # Transaction distribution
system.membus.trans_dist::ReadResp                 43                       # Transaction distribution
system.membus.trans_dist::WriteReq                  2                       # Transaction distribution
system.membus.trans_dist::WriteResp                 2                       # Transaction distribution
system.mmiofu.pwrStateResidencyTicks::UNDEFINED      2553000                       # Cumulative time (in ticks) in various power states
system.mmiofu_bridge.pwrStateResidencyTicks::UNDEFINED      2553000                       # Cumulative time (in ticks) in various power states
system.pc.behind_pci.pwrStateResidencyTicks::UNDEFINED      2553000                       # Cumulative time (in ticks) in various power states
system.pc.com_1.pwrStateResidencyTicks::UNDEFINED      2553000                       # Cumulative time (in ticks) in various power states
system.pc.fake_com_2.pwrStateResidencyTicks::UNDEFINED      2553000                       # Cumulative time (in ticks) in various power states
system.pc.fake_com_3.pwrStateResidencyTicks::UNDEFINED      2553000                       # Cumulative time (in ticks) in various power states
system.pc.fake_com_4.pwrStateResidencyTicks::UNDEFINED      2553000                       # Cumulative time (in ticks) in various power states
system.pc.fake_floppy.pwrStateResidencyTicks::UNDEFINED      2553000                       # Cumulative time (in ticks) in various power states
system.pc.i_dont_exist1.pwrStateResidencyTicks::UNDEFINED      2553000                       # Cumulative time (in ticks) in various power states
system.pc.i_dont_exist2.pwrStateResidencyTicks::UNDEFINED      2553000                       # Cumulative time (in ticks) in various power states
system.pc.pci_host.pwrStateResidencyTicks::UNDEFINED      2553000                       # Cumulative time (in ticks) in various power states
system.pc.south_bridge.cmos.pwrStateResidencyTicks::UNDEFINED      2553000                       # Cumulative time (in ticks) in various power states
system.pc.south_bridge.dma1.pwrStateResidencyTicks::UNDEFINED      2553000                       # Cumulative time (in ticks) in various power states
system.pc.south_bridge.ide.disks0.dma_read_bytes            0                       # Number of bytes transfered via DMA reads (not PRD).
system.pc.south_bridge.ide.disks0.dma_read_full_pages            0                       # Number of full page size DMA reads (not PRD).
system.pc.south_bridge.ide.disks0.dma_read_txs            0                       # Number of DMA read transactions (not PRD).
system.pc.south_bridge.ide.disks0.dma_write_bytes            0                       # Number of bytes transfered via DMA writes.
system.pc.south_bridge.ide.disks0.dma_write_full_pages            0                       # Number of full page size DMA writes.
system.pc.south_bridge.ide.disks0.dma_write_txs            0                       # Number of DMA write transactions.
system.pc.south_bridge.ide.disks1.dma_read_bytes            0                       # Number of bytes transfered via DMA reads (not PRD).
system.pc.south_bridge.ide.disks1.dma_read_full_pages            0                       # Number of full page size DMA reads (not PRD).
system.pc.south_bridge.ide.disks1.dma_read_txs            0                       # Number of DMA read transactions (not PRD).
system.pc.south_bridge.ide.disks1.dma_write_bytes            0                       # Number of bytes transfered via DMA writes.
system.pc.south_bridge.ide.disks1.dma_write_full_pages            0                       # Number of full page size DMA writes.
system.pc.south_bridge.ide.disks1.dma_write_txs            0                       # Number of DMA write transactions.
system.pc.south_bridge.ide.pwrStateResidencyTicks::UNDEFINED      2553000                       # Cumulative time (in ticks) in various power states
system.pc.south_bridge.io_apic.pwrStateResidencyTicks::UNDEFINED      2553000                       # Cumulative time (in ticks) in various power states
system.pc.south_bridge.keyboard.pwrStateResidencyTicks::UNDEFINED      2553000                       # Cumulative time (in ticks) in various power states
system.pc.south_bridge.pic1.pwrStateResidencyTicks::UNDEFINED      2553000                       # Cumulative time (in ticks) in various power states
system.pc.south_bridge.pic2.pwrStateResidencyTicks::UNDEFINED      2553000                       # Cumulative time (in ticks) in various power states
system.pc.south_bridge.pit.pwrStateResidencyTicks::UNDEFINED      2553000                       # Cumulative time (in ticks) in various power states
system.pc.south_bridge.speaker.pwrStateResidencyTicks::UNDEFINED      2553000                       # Cumulative time (in ticks) in various power states
system.pwrStateResidencyTicks::UNDEFINED      2553000                       # Cumulative time (in ticks) in various power states
system.switch_cpus.Branches                         4                       # Number of branches fetched
system.switch_cpus.committedInsts                  20                       # Number of instructions committed
system.switch_cpus.committedOps                    36                       # Number of ops (including micro ops) committed
system.switch_cpus.dtb.pwrStateResidencyTicks::UNDEFINED      2553000                       # Cumulative time (in ticks) in various power states
system.switch_cpus.dtb.rdAccesses                   9                       # TLB accesses on read requests
system.switch_cpus.dtb.rdMisses                     1                       # TLB misses on read requests
system.switch_cpus.dtb.walker.pwrStateResidencyTicks::UNDEFINED      2553000                       # Cumulative time (in ticks) in various power states
system.switch_cpus.dtb.wrAccesses                   2                       # TLB accesses on write requests
system.switch_cpus.dtb.wrMisses                     0                       # TLB misses on write requests
system.switch_cpus.idle_fraction                    0                       # Percentage of idle cycles
system.switch_cpus.itb.pwrStateResidencyTicks::UNDEFINED      2553000                       # Cumulative time (in ticks) in various power states
system.switch_cpus.itb.rdAccesses                   0                       # TLB accesses on read requests
system.switch_cpus.itb.rdMisses                     0                       # TLB misses on read requests
system.switch_cpus.itb.walker.pwrStateResidencyTicks::UNDEFINED      2553000                       # Cumulative time (in ticks) in various power states
system.switch_cpus.itb.wrAccesses                  32                       # TLB accesses on write requests
system.switch_cpus.itb.wrMisses                     0                       # TLB misses on write requests
system.switch_cpus.kern.inst.arm                    0                       # number of arm instructions executed
system.switch_cpus.kern.inst.quiesce                0                       # number of quiesce instructions executed
system.switch_cpus.not_idle_fraction                1                       # Percentage of non-idle cycles
system.switch_cpus.numCycles                     4470                       # number of cpu cycles simulated
system.switch_cpus.numWorkItemsCompleted            0                       # number of work items this cpu completed
system.switch_cpus.numWorkItemsStarted              0                       # number of work items this cpu started
system.switch_cpus.num_busy_cycles               4470                       # Number of busy cycles
system.switch_cpus.num_cc_register_reads            7                       # number of times the CC registers were read
system.switch_cpus.num_cc_register_writes            6                       # number of times the CC registers were written
system.switch_cpus.num_conditional_control_insts            1                       # number of instructions that are conditional controls
system.switch_cpus.num_fp_alu_accesses              8                       # Number of float alu accesses
system.switch_cpus.num_fp_insts                     8                       # number of float instructions
system.switch_cpus.num_fp_register_reads           11                       # number of times the floating registers were read
system.switch_cpus.num_fp_register_writes            7                       # number of times the floating registers were written
system.switch_cpus.num_func_calls                   2                       # number of times a function call or return occured
system.switch_cpus.num_idle_cycles                  0                       # Number of idle cycles
system.switch_cpus.num_int_alu_accesses            32                       # Number of integer alu accesses
system.switch_cpus.num_int_insts                   32                       # number of integer instructions
system.switch_cpus.num_int_register_reads           63                       # number of times the integer registers were read
system.switch_cpus.num_int_register_writes           23                       # number of times the integer registers were written
system.switch_cpus.num_load_insts                   8                       # Number of load instructions
system.switch_cpus.num_mem_refs                    10                       # number of memory refs
system.switch_cpus.num_store_insts                  2                       # Number of store instructions
system.switch_cpus.num_vec_alu_accesses             0                       # Number of vector alu accesses
system.switch_cpus.num_vec_insts                    0                       # number of vector instructions
system.switch_cpus.num_vec_register_reads            0                       # number of times the vector registers were read
system.switch_cpus.num_vec_register_writes            0                       # number of times the vector registers were written
system.switch_cpus.op_class::No_OpClass             0      0.00%      0.00% # Class of executed instruction
system.switch_cpus.op_class::IntAlu                21     58.33%     58.33% # Class of executed instruction
system.switch_cpus.op_class::IntMult                0      0.00%     58.33% # Class of executed instruction
system.switch_cpus.op_class::IntDiv                 0      0.00%     58.33% # Class of executed instruction
system.switch_cpus.op_class::FloatAdd               0      0.00%     58.33% # Class of executed instruction
system.switch_cpus.op_class::FloatCmp               0      0.00%     58.33% # Class of executed instruction
system.switch_cpus.op_class::FloatCvt               0      0.00%     58.33% # Class of executed instruction
system.switch_cpus.op_class::FloatMult              0      0.00%     58.33% # Class of executed instruction
system.switch_cpus.op_class::FloatMultAcc            0      0.00%     58.33% # Class of executed instruction
system.switch_cpus.op_class::FloatDiv               0      0.00%     58.33% # Class of executed instruction
system.switch_cpus.op_class::FloatMisc              0      0.00%     58.33% # Class of executed instruction
system.switch_cpus.op_class::FloatSqrt              0      0.00%     58.33% # Class of executed instruction
system.switch_cpus.op_class::SimdAdd                0      0.00%     58.33% # Class of executed instruction
system.switch_cpus.op_class::SimdAddAcc             0      0.00%     58.33% # Class of executed instruction
system.switch_cpus.op_class::SimdAlu                0      0.00%     58.33% # Class of executed instruction
system.switch_cpus.op_class::SimdCmp                0      0.00%     58.33% # Class of executed instruction
system.switch_cpus.op_class::SimdCvt                0      0.00%     58.33% # Class of executed instruction
system.switch_cpus.op_class::SimdMisc               1      2.78%     61.11% # Class of executed instruction
system.switch_cpus.op_class::SimdMult               0      0.00%     61.11% # Class of executed instruction
system.switch_cpus.op_class::SimdMultAcc            0      0.00%     61.11% # Class of executed instruction
system.switch_cpus.op_class::SimdShift              0      0.00%     61.11% # Class of executed instruction
system.switch_cpus.op_class::SimdShiftAcc            0      0.00%     61.11% # Class of executed instruction
system.switch_cpus.op_class::SimdSqrt               0      0.00%     61.11% # Class of executed instruction
system.switch_cpus.op_class::SimdFloatAdd            1      2.78%     63.89% # Class of executed instruction
system.switch_cpus.op_class::SimdFloatAlu            0      0.00%     63.89% # Class of executed instruction
system.switch_cpus.op_class::SimdFloatCmp            0      0.00%     63.89% # Class of executed instruction
system.switch_cpus.op_class::SimdFloatCvt            2      5.56%     69.44% # Class of executed instruction
system.switch_cpus.op_class::SimdFloatDiv            0      0.00%     69.44% # Class of executed instruction
system.switch_cpus.op_class::SimdFloatMisc            0      0.00%     69.44% # Class of executed instruction
system.switch_cpus.op_class::SimdFloatMult            1      2.78%     72.22% # Class of executed instruction
system.switch_cpus.op_class::SimdFloatMultAcc            0      0.00%     72.22% # Class of executed instruction
system.switch_cpus.op_class::SimdFloatSqrt            0      0.00%     72.22% # Class of executed instruction
system.switch_cpus.op_class::SimdAes                0      0.00%     72.22% # Class of executed instruction
system.switch_cpus.op_class::SimdAesMix             0      0.00%     72.22% # Class of executed instruction
system.switch_cpus.op_class::SimdSha1Hash            0      0.00%     72.22% # Class of executed instruction
system.switch_cpus.op_class::SimdSha1Hash2            0      0.00%     72.22% # Class of executed instruction
system.switch_cpus.op_class::SimdSha256Hash            0      0.00%     72.22% # Class of executed instruction
system.switch_cpus.op_class::SimdSha256Hash2            0      0.00%     72.22% # Class of executed instruction
system.switch_cpus.op_class::SimdShaSigma2            0      0.00%     72.22% # Class of executed instruction
system.switch_cpus.op_class::SimdShaSigma3            0      0.00%     72.22% # Class of executed instruction
system.switch_cpus.op_class::MemRead                5     13.89%     86.11% # Class of executed instruction
system.switch_cpus.op_class::MemWrite               2      5.56%     91.67% # Class of executed instruction
system.switch_cpus.op_class::FloatMemRead            3      8.33%    100.00% # Class of executed instruction
system.switch_cpus.op_class::FloatMemWrite            0      0.00%    100.00% # Class of executed instruction
system.switch_cpus.op_class::IprAccess              0      0.00%    100.00% # Class of executed instruction
system.switch_cpus.op_class::InstPrefetch            0      0.00%    100.00% # Class of executed instruction
system.switch_cpus.op_class::total                 36                       # Class of executed instruction
system.switch_cpus.pwrStateResidencyTicks::ON      2553000                       # Cumulative time (in ticks) in various power states
system.voltage_domain.voltage                       1                       # Voltage in Volts

---------- End Simulation Statistics   ----------
